<routes>
        <vType accel="1.0" decel="4.5" id="standard_car" length="5.0" minGap="2.5" maxSpeed="25" sigma="0.5" />
        <route id="W_N" edges="W2TL TL2N"/>
        <route id="W_E" edges="W2TL TL2E"/>
        <route id="W_S" edges="W2TL TL2S"/>
        <route id="N_W" edges="N2TL TL2W"/>
        <route id="N_E" edges="N2TL TL2E"/>
        <route id="N_S" edges="N2TL TL2S"/>
        <route id="E_W" edges="E2TL TL2W"/>
        <route id="E_N" edges="E2TL TL2N"/>
        <route id="E_S" edges="E2TL TL2S"/>
        <route id="S_W" edges="S2TL TL2W"/>
        <route id="S_N" edges="S2TL TL2N"/>
        <route id="S_E" edges="S2TL TL2E"/>
    <vehicle id="W_E_0" type="standard_car" route="W_E" depart="39.0" departLane="random" departSpeed="10" />
    <vehicle id="E_W_1" type="standard_car" route="E_W" depart="52.0" departLane="random" departSpeed="10" />
    <vehicle id="S_N_2" type="standard_car" route="S_N" depart="69.0" departLane="random" departSpeed="10" />
    <vehicle id="W_E_3" type="standard_car" route="W_E" depart="78.0" departLane="random" departSpeed="10" />
    <vehicle id="S_N_4" type="standard_car" route="S_N" depart="78.0" departLane="random" departSpeed="10" />
    <vehicle id="N_S_5" type="standard_car" route="N_S" depart="87.0" departLane="random" departSpeed="10" />
    <vehicle id="W_E_6" type="standard_car" route="W_E" depart="94.0" departLane="random" departSpeed="10" />
    <vehicle id="W_E_7" type="standard_car" route="W_E" depart="96.0" departLane="random" departSpeed="10" />
    <vehicle id="W_E_8" type="standard_car" route="W_E" depart="100.0" departLane="random" departSpeed="10" />
    <vehicle id="W_E_9" type="standard_car" route="W_E" depart="101.0" departLane="random" departSpeed="10" />
    <vehicle id="W_E_10" type="standard_car" route="W_E" depart="102.0" departLane="random" departSpeed="10" />
    <vehicle id="W_E_11" type="standard_car" route="W_E" depart="113.0" departLane="random" departSpeed="10" />
    <vehicle id="E_W_12" type="standard_car" route="E_W" depart="114.0" departLane="random" departSpeed="10" />
    <vehicle id="E_W_13" type="standard_car" route="E_W" depart="116.0" departLane="random" departSpeed="10" />
    <vehicle id="S_N_14" type="standard_car" route="S_N" depart="118.0" departLane="random" departSpeed="10" />
    <vehicle id="E_S_15" type="standard_car" route="E_S" depart="123.0" departLane="random" departSpeed="10" />
    <vehicle id="W_E_16" type="standard_car" route="W_E" depart="127.0" departLane="random" departSpeed="10" />
    <vehicle id="S_N_17" type="standard_car" route="S_N" depart="133.0" departLane="random" departSpeed="10" />
    <vehicle id="N_S_18" type="standard_car" route="N_S" depart="135.0" departLane="random" departSpeed="10" />
    <vehicle id="S_N_19" type="standard_car" route="S_N" depart="138.0" departLane="random" departSpeed="10" />
    <vehicle id="W_E_20" type="standard_car" route="W_E" depart="140.0" departLane="random" departSpeed="10" />
    <vehicle id="E_W_21" type="standard_car" route="E_W" depart="142.0" departLane="random" departSpeed="10" />
    <vehicle id="S_N_22" type="standard_car" route="S_N" depart="146.0" departLane="random" departSpeed="10" />
    <vehicle id="W_N_23" type="standard_car" route="W_N" depart="148.0" departLane="random" departSpeed="10" />
    <vehicle id="N_S_24" type="standard_car" route="N_S" depart="151.0" departLane="random" departSpeed="10" />
    <vehicle id="N_S_25" type="standard_car" route="N_S" depart="152.0" departLane="random" departSpeed="10" />
    <vehicle id="S_N_26" type="standard_car" route="S_N" depart="152.0" departLane="random" departSpeed="10" />
    <vehicle id="E_W_27" type="standard_car" route="E_W" depart="153.0" departLane="random" departSpeed="10" />
    <vehicle id="S_N_28" type="standard_car" route="S_N" depart="154.0" departLane="random" departSpeed="10" />
    <vehicle id="S_N_29" type="standard_car" route="S_N" depart="154.0" departLane="random" departSpeed="10" />
    <vehicle id="W_N_30" type="standard_car" route="W_N" depart="156.0" departLane="random" departSpeed="10" />
    <vehicle id="E_W_31" type="standard_car" route="E_W" depart="160.0" departLane="random" departSpeed="10" />
    <vehicle id="N_S_32" type="standard_car" route="N_S" depart="163.0" departLane="random" departSpeed="10" />
    <vehicle id="N_S_33" type="standard_car" route="N_S" depart="163.0" departLane="random" departSpeed="10" />
    <vehicle id="W_E_34" type="standard_car" route="W_E" depart="163.0" departLane="random" departSpeed="10" />
    <vehicle id="E_S_35" type="standard_car" route="E_S" depart="168.0" departLane="random" departSpeed="10" />
    <vehicle id="S_N_36" type="standard_car" route="S_N" depart="168.0" departLane="random" departSpeed="10" />
    <vehicle id="N_S_37" type="standard_car" route="N_S" depart="171.0" departLane="random" departSpeed="10" />
    <vehicle id="S_N_38" type="standard_car" route="S_N" depart="177.0" departLane="random" departSpeed="10" />
    <vehicle id="S_N_39" type="standard_car" route="S_N" depart="181.0" departLane="random" departSpeed="10" />
    <vehicle id="S_N_40" type="standard_car" route="S_N" depart="182.0" departLane="random" departSpeed="10" />
    <vehicle id="N_S_41" type="standard_car" route="N_S" depart="182.0" departLane="random" departSpeed="10" />
    <vehicle id="N_S_42" type="standard_car" route="N_S" depart="182.0" departLane="random" departSpeed="10" />
    <vehicle id="E_W_43" type="standard_car" route="E_W" depart="184.0" departLane="random" departSpeed="10" />
    <vehicle id="N_E_44" type="standard_car" route="N_E" depart="187.0" departLane="random" departSpeed="10" />
    <vehicle id="W_E_45" type="standard_car" route="W_E" depart="188.0" departLane="random" departSpeed="10" />
    <vehicle id="S_N_46" type="standard_car" route="S_N" depart="189.0" departLane="random" departSpeed="10" />
    <vehicle id="W_E_47" type="standard_car" route="W_E" depart="191.0" departLane="random" departSpeed="10" />
    <vehicle id="W_E_48" type="standard_car" route="W_E" depart="197.0" departLane="random" departSpeed="10" />
    <vehicle id="E_W_49" type="standard_car" route="E_W" depart="201.0" departLane="random" departSpeed="10" />
    <vehicle id="W_N_50" type="standard_car" route="W_N" depart="206.0" departLane="random" departSpeed="10" />
    <vehicle id="S_N_51" type="standard_car" route="S_N" depart="209.0" departLane="random" departSpeed="10" />
    <vehicle id="W_E_52" type="standard_car" route="W_E" depart="217.0" departLane="random" departSpeed="10" />
    <vehicle id="S_W_53" type="standard_car" route="S_W" depart="220.0" departLane="random" departSpeed="10" />
    <vehicle id="E_W_54" type="standard_car" route="E_W" depart="221.0" departLane="random" departSpeed="10" />
    <vehicle id="S_N_55" type="standard_car" route="S_N" depart="231.0" departLane="random" departSpeed="10" />
    <vehicle id="E_W_56" type="standard_car" route="E_W" depart="232.0" departLane="random" departSpeed="10" />
    <vehicle id="S_N_57" type="standard_car" route="S_N" depart="234.0" departLane="random" departSpeed="10" />
    <vehicle id="S_N_58" type="standard_car" route="S_N" depart="235.0" departLane="random" departSpeed="10" />
    <vehicle id="N_W_59" type="standard_car" route="N_W" depart="238.0" departLane="random" departSpeed="10" />
    <vehicle id="E_W_60" type="standard_car" route="E_W" depart="240.0" departLane="random" departSpeed="10" />
    <vehicle id="N_S_61" type="standard_car" route="N_S" depart="244.0" departLane="random" departSpeed="10" />
    <vehicle id="S_N_62" type="standard_car" route="S_N" depart="245.0" departLane="random" departSpeed="10" />
    <vehicle id="W_S_63" type="standard_car" route="W_S" depart="250.0" departLane="random" departSpeed="10" />
    <vehicle id="E_W_64" type="standard_car" route="E_W" depart="254.0" departLane="random" departSpeed="10" />
    <vehicle id="E_W_65" type="standard_car" route="E_W" depart="256.0" departLane="random" departSpeed="10" />
    <vehicle id="S_N_66" type="standard_car" route="S_N" depart="257.0" departLane="random" departSpeed="10" />
    <vehicle id="W_E_67" type="standard_car" route="W_E" depart="259.0" departLane="random" departSpeed="10" />
    <vehicle id="S_W_68" type="standard_car" route="S_W" depart="260.0" departLane="random" departSpeed="10" />
    <vehicle id="W_N_69" type="standard_car" route="W_N" depart="261.0" departLane="random" departSpeed="10" />
    <vehicle id="N_E_70" type="standard_car" route="N_E" depart="263.0" departLane="random" departSpeed="10" />
    <vehicle id="E_W_71" type="standard_car" route="E_W" depart="265.0" departLane="random" departSpeed="10" />
    <vehicle id="S_N_72" type="standard_car" route="S_N" depart="266.0" departLane="random" departSpeed="10" />
    <vehicle id="N_S_73" type="standard_car" route="N_S" depart="267.0" departLane="random" departSpeed="10" />
    <vehicle id="S_N_74" type="standard_car" route="S_N" depart="269.0" departLane="random" departSpeed="10" />
    <vehicle id="S_N_75" type="standard_car" route="S_N" depart="269.0" departLane="random" departSpeed="10" />
    <vehicle id="S_N_76" type="standard_car" route="S_N" depart="272.0" departLane="random" departSpeed="10" />
    <vehicle id="E_W_77" type="standard_car" route="E_W" depart="276.0" departLane="random" departSpeed="10" />
    <vehicle id="S_N_78" type="standard_car" route="S_N" depart="277.0" departLane="random" departSpeed="10" />
    <vehicle id="E_W_79" type="standard_car" route="E_W" depart="281.0" departLane="random" departSpeed="10" />
    <vehicle id="N_S_80" type="standard_car" route="N_S" depart="283.0" departLane="random" departSpeed="10" />
    <vehicle id="W_E_81" type="standard_car" route="W_E" depart="283.0" departLane="random" departSpeed="10" />
    <vehicle id="N_S_82" type="standard_car" route="N_S" depart="284.0" departLane="random" departSpeed="10" />
    <vehicle id="E_W_83" type="standard_car" route="E_W" depart="286.0" departLane="random" departSpeed="10" />
    <vehicle id="S_N_84" type="standard_car" route="S_N" depart="287.0" departLane="random" departSpeed="10" />
    <vehicle id="E_W_85" type="standard_car" route="E_W" depart="292.0" departLane="random" departSpeed="10" />
    <vehicle id="W_E_86" type="standard_car" route="W_E" depart="293.0" departLane="random" departSpeed="10" />
    <vehicle id="W_E_87" type="standard_car" route="W_E" depart="295.0" departLane="random" departSpeed="10" />
    <vehicle id="N_S_88" type="standard_car" route="N_S" depart="295.0" departLane="random" departSpeed="10" />
    <vehicle id="N_S_89" type="standard_car" route="N_S" depart="296.0" departLane="random" departSpeed="10" />
    <vehicle id="E_W_90" type="standard_car" route="E_W" depart="300.0" departLane="random" departSpeed="10" />
    <vehicle id="E_W_91" type="standard_car" route="E_W" depart="304.0" departLane="random" departSpeed="10" />
    <vehicle id="N_E_92" type="standard_car" route="N_E" depart="305.0" departLane="random" departSpeed="10" />
    <vehicle id="W_E_93" type="standard_car" route="W_E" depart="305.0" departLane="random" departSpeed="10" />
    <vehicle id="E_W_94" type="standard_car" route="E_W" depart="306.0" departLane="random" departSpeed="10" />
    <vehicle id="S_W_95" type="standard_car" route="S_W" depart="306.0" departLane="random" departSpeed="10" />
    <vehicle id="N_S_96" type="standard_car" route="N_S" depart="308.0" departLane="random" departSpeed="10" />
    <vehicle id="N_S_97" type="standard_car" route="N_S" depart="308.0" departLane="random" departSpeed="10" />
    <vehicle id="N_S_98" type="standard_car" route="N_S" depart="309.0" departLane="random" departSpeed="10" />
    <vehicle id="S_N_99" type="standard_car" route="S_N" depart="310.0" departLane="random" departSpeed="10" />
    <vehicle id="N_S_100" type="standard_car" route="N_S" depart="310.0" departLane="random" departSpeed="10" />
    <vehicle id="W_S_101" type="standard_car" route="W_S" depart="312.0" departLane="random" departSpeed="10" />
    <vehicle id="N_W_102" type="standard_car" route="N_W" depart="313.0" departLane="random" departSpeed="10" />
    <vehicle id="S_W_103" type="standard_car" route="S_W" depart="315.0" departLane="random" departSpeed="10" />
    <vehicle id="N_S_104" type="standard_car" route="N_S" depart="316.0" departLane="random" departSpeed="10" />
    <vehicle id="E_S_105" type="standard_car" route="E_S" depart="316.0" departLane="random" departSpeed="10" />
    <vehicle id="E_W_106" type="standard_car" route="E_W" depart="318.0" departLane="random" departSpeed="10" />
    <vehicle id="N_S_107" type="standard_car" route="N_S" depart="320.0" departLane="random" departSpeed="10" />
    <vehicle id="E_S_108" type="standard_car" route="E_S" depart="322.0" departLane="random" departSpeed="10" />
    <vehicle id="N_S_109" type="standard_car" route="N_S" depart="324.0" departLane="random" departSpeed="10" />
    <vehicle id="S_N_110" type="standard_car" route="S_N" depart="325.0" departLane="random" departSpeed="10" />
    <vehicle id="E_W_111" type="standard_car" route="E_W" depart="325.0" departLane="random" departSpeed="10" />
    <vehicle id="S_N_112" type="standard_car" route="S_N" depart="328.0" departLane="random" departSpeed="10" />
    <vehicle id="W_E_113" type="standard_car" route="W_E" depart="331.0" departLane="random" departSpeed="10" />
    <vehicle id="E_W_114" type="standard_car" route="E_W" depart="335.0" departLane="random" departSpeed="10" />
    <vehicle id="E_S_115" type="standard_car" route="E_S" depart="336.0" departLane="random" departSpeed="10" />
    <vehicle id="N_W_116" type="standard_car" route="N_W" depart="337.0" departLane="random" departSpeed="10" />
    <vehicle id="E_W_117" type="standard_car" route="E_W" depart="339.0" departLane="random" departSpeed="10" />
    <vehicle id="E_W_118" type="standard_car" route="E_W" depart="340.0" departLane="random" departSpeed="10" />
    <vehicle id="W_E_119" type="standard_car" route="W_E" depart="341.0" departLane="random" departSpeed="10" />
    <vehicle id="S_N_120" type="standard_car" route="S_N" depart="341.0" departLane="random" departSpeed="10" />
    <vehicle id="E_N_121" type="standard_car" route="E_N" depart="344.0" departLane="random" departSpeed="10" />
    <vehicle id="N_S_122" type="standard_car" route="N_S" depart="345.0" departLane="random" departSpeed="10" />
    <vehicle id="W_S_123" type="standard_car" route="W_S" depart="345.0" departLane="random" departSpeed="10" />
    <vehicle id="W_E_124" type="standard_car" route="W_E" depart="346.0" departLane="random" departSpeed="10" />
    <vehicle id="S_N_125" type="standard_car" route="S_N" depart="346.0" departLane="random" departSpeed="10" />
    <vehicle id="S_N_126" type="standard_car" route="S_N" depart="347.0" departLane="random" departSpeed="10" />
    <vehicle id="S_E_127" type="standard_car" route="S_E" depart="348.0" departLane="random" departSpeed="10" />
    <vehicle id="N_S_128" type="standard_car" route="N_S" depart="349.0" departLane="random" departSpeed="10" />
    <vehicle id="S_W_129" type="standard_car" route="S_W" depart="349.0" departLane="random" departSpeed="10" />
    <vehicle id="S_N_130" type="standard_car" route="S_N" depart="349.0" departLane="random" departSpeed="10" />
    <vehicle id="E_W_131" type="standard_car" route="E_W" depart="350.0" departLane="random" departSpeed="10" />
    <vehicle id="E_W_132" type="standard_car" route="E_W" depart="352.0" departLane="random" departSpeed="10" />
    <vehicle id="S_W_133" type="standard_car" route="S_W" depart="353.0" departLane="random" departSpeed="10" />
    <vehicle id="S_N_134" type="standard_car" route="S_N" depart="353.0" departLane="random" departSpeed="10" />
    <vehicle id="E_W_135" type="standard_car" route="E_W" depart="353.0" departLane="random" departSpeed="10" />
    <vehicle id="N_S_136" type="standard_car" route="N_S" depart="360.0" departLane="random" departSpeed="10" />
    <vehicle id="S_W_137" type="standard_car" route="S_W" depart="361.0" departLane="random" departSpeed="10" />
    <vehicle id="W_E_138" type="standard_car" route="W_E" depart="363.0" departLane="random" departSpeed="10" />
    <vehicle id="W_S_139" type="standard_car" route="W_S" depart="364.0" departLane="random" departSpeed="10" />
    <vehicle id="W_E_140" type="standard_car" route="W_E" depart="365.0" departLane="random" departSpeed="10" />
    <vehicle id="N_S_141" type="standard_car" route="N_S" depart="365.0" departLane="random" departSpeed="10" />
    <vehicle id="E_W_142" type="standard_car" route="E_W" depart="366.0" departLane="random" departSpeed="10" />
    <vehicle id="E_W_143" type="standard_car" route="E_W" depart="367.0" departLane="random" departSpeed="10" />
    <vehicle id="N_W_144" type="standard_car" route="N_W" depart="369.0" departLane="random" departSpeed="10" />
    <vehicle id="W_E_145" type="standard_car" route="W_E" depart="369.0" departLane="random" departSpeed="10" />
    <vehicle id="S_E_146" type="standard_car" route="S_E" depart="374.0" departLane="random" departSpeed="10" />
    <vehicle id="E_W_147" type="standard_car" route="E_W" depart="376.0" departLane="random" departSpeed="10" />
    <vehicle id="S_N_148" type="standard_car" route="S_N" depart="377.0" departLane="random" departSpeed="10" />
    <vehicle id="S_N_149" type="standard_car" route="S_N" depart="377.0" departLane="random" departSpeed="10" />
    <vehicle id="S_N_150" type="standard_car" route="S_N" depart="378.0" departLane="random" departSpeed="10" />
    <vehicle id="S_N_151" type="standard_car" route="S_N" depart="379.0" departLane="random" departSpeed="10" />
    <vehicle id="N_S_152" type="standard_car" route="N_S" depart="379.0" departLane="random" departSpeed="10" />
    <vehicle id="E_N_153" type="standard_car" route="E_N" depart="380.0" departLane="random" departSpeed="10" />
    <vehicle id="E_W_154" type="standard_car" route="E_W" depart="380.0" departLane="random" departSpeed="10" />
    <vehicle id="W_E_155" type="standard_car" route="W_E" depart="381.0" departLane="random" departSpeed="10" />
    <vehicle id="E_S_156" type="standard_car" route="E_S" depart="382.0" departLane="random" departSpeed="10" />
    <vehicle id="E_W_157" type="standard_car" route="E_W" depart="383.0" departLane="random" departSpeed="10" />
    <vehicle id="S_W_158" type="standard_car" route="S_W" depart="383.0" departLane="random" departSpeed="10" />
    <vehicle id="N_E_159" type="standard_car" route="N_E" depart="384.0" departLane="random" departSpeed="10" />
    <vehicle id="S_N_160" type="standard_car" route="S_N" depart="384.0" departLane="random" departSpeed="10" />
    <vehicle id="W_E_161" type="standard_car" route="W_E" depart="386.0" departLane="random" departSpeed="10" />
    <vehicle id="E_W_162" type="standard_car" route="E_W" depart="386.0" departLane="random" departSpeed="10" />
    <vehicle id="N_S_163" type="standard_car" route="N_S" depart="390.0" departLane="random" departSpeed="10" />
    <vehicle id="W_E_164" type="standard_car" route="W_E" depart="392.0" departLane="random" departSpeed="10" />
    <vehicle id="W_E_165" type="standard_car" route="W_E" depart="392.0" departLane="random" departSpeed="10" />
    <vehicle id="N_S_166" type="standard_car" route="N_S" depart="392.0" departLane="random" departSpeed="10" />
    <vehicle id="N_S_167" type="standard_car" route="N_S" depart="394.0" departLane="random" departSpeed="10" />
    <vehicle id="S_E_168" type="standard_car" route="S_E" depart="395.0" departLane="random" departSpeed="10" />
    <vehicle id="W_E_169" type="standard_car" route="W_E" depart="397.0" departLane="random" departSpeed="10" />
    <vehicle id="E_N_170" type="standard_car" route="E_N" depart="398.0" departLane="random" departSpeed="10" />
    <vehicle id="E_W_171" type="standard_car" route="E_W" depart="398.0" departLane="random" departSpeed="10" />
    <vehicle id="E_W_172" type="standard_car" route="E_W" depart="399.0" departLane="random" departSpeed="10" />
    <vehicle id="E_W_173" type="standard_car" route="E_W" depart="399.0" departLane="random" departSpeed="10" />
    <vehicle id="E_W_174" type="standard_car" route="E_W" depart="400.0" departLane="random" departSpeed="10" />
    <vehicle id="N_S_175" type="standard_car" route="N_S" depart="400.0" departLane="random" departSpeed="10" />
    <vehicle id="E_W_176" type="standard_car" route="E_W" depart="403.0" departLane="random" departSpeed="10" />
    <vehicle id="S_N_177" type="standard_car" route="S_N" depart="405.0" departLane="random" departSpeed="10" />
    <vehicle id="S_N_178" type="standard_car" route="S_N" depart="406.0" departLane="random" departSpeed="10" />
    <vehicle id="W_E_179" type="standard_car" route="W_E" depart="411.0" departLane="random" departSpeed="10" />
    <vehicle id="E_W_180" type="standard_car" route="E_W" depart="411.0" departLane="random" departSpeed="10" />
    <vehicle id="N_E_181" type="standard_car" route="N_E" depart="412.0" departLane="random" departSpeed="10" />
    <vehicle id="W_N_182" type="standard_car" route="W_N" depart="412.0" departLane="random" departSpeed="10" />
    <vehicle id="E_N_183" type="standard_car" route="E_N" depart="412.0" departLane="random" departSpeed="10" />
    <vehicle id="E_S_184" type="standard_car" route="E_S" depart="413.0" departLane="random" departSpeed="10" />
    <vehicle id="S_E_185" type="standard_car" route="S_E" depart="413.0" departLane="random" departSpeed="10" />
    <vehicle id="N_S_186" type="standard_car" route="N_S" depart="413.0" departLane="random" departSpeed="10" />
    <vehicle id="S_E_187" type="standard_car" route="S_E" depart="415.0" departLane="random" departSpeed="10" />
    <vehicle id="E_W_188" type="standard_car" route="E_W" depart="415.0" departLane="random" departSpeed="10" />
    <vehicle id="W_E_189" type="standard_car" route="W_E" depart="419.0" departLane="random" departSpeed="10" />
    <vehicle id="W_E_190" type="standard_car" route="W_E" depart="419.0" departLane="random" departSpeed="10" />
    <vehicle id="S_N_191" type="standard_car" route="S_N" depart="421.0" departLane="random" departSpeed="10" />
    <vehicle id="N_S_192" type="standard_car" route="N_S" depart="421.0" departLane="random" departSpeed="10" />
    <vehicle id="N_S_193" type="standard_car" route="N_S" depart="421.0" departLane="random" departSpeed="10" />
    <vehicle id="W_E_194" type="standard_car" route="W_E" depart="422.0" departLane="random" departSpeed="10" />
    <vehicle id="N_S_195" type="standard_car" route="N_S" depart="423.0" departLane="random" departSpeed="10" />
    <vehicle id="N_W_196" type="standard_car" route="N_W" depart="423.0" departLane="random" departSpeed="10" />
    <vehicle id="N_W_197" type="standard_car" route="N_W" depart="424.0" departLane="random" departSpeed="10" />
    <vehicle id="E_W_198" type="standard_car" route="E_W" depart="425.0" departLane="random" departSpeed="10" />
    <vehicle id="W_E_199" type="standard_car" route="W_E" depart="425.0" departLane="random" departSpeed="10" />
    <vehicle id="W_E_200" type="standard_car" route="W_E" depart="428.0" departLane="random" departSpeed="10" />
    <vehicle id="E_W_201" type="standard_car" route="E_W" depart="429.0" departLane="random" departSpeed="10" />
    <vehicle id="W_E_202" type="standard_car" route="W_E" depart="430.0" departLane="random" departSpeed="10" />
    <vehicle id="E_S_203" type="standard_car" route="E_S" depart="431.0" departLane="random" departSpeed="10" />
    <vehicle id="W_E_204" type="standard_car" route="W_E" depart="432.0" departLane="random" departSpeed="10" />
    <vehicle id="S_N_205" type="standard_car" route="S_N" depart="433.0" departLane="random" departSpeed="10" />
    <vehicle id="W_E_206" type="standard_car" route="W_E" depart="434.0" departLane="random" departSpeed="10" />
    <vehicle id="W_S_207" type="standard_car" route="W_S" depart="434.0" departLane="random" departSpeed="10" />
    <vehicle id="N_S_208" type="standard_car" route="N_S" depart="436.0" departLane="random" departSpeed="10" />
    <vehicle id="E_W_209" type="standard_car" route="E_W" depart="436.0" departLane="random" departSpeed="10" />
    <vehicle id="S_E_210" type="standard_car" route="S_E" depart="438.0" departLane="random" departSpeed="10" />
    <vehicle id="E_N_211" type="standard_car" route="E_N" depart="439.0" departLane="random" departSpeed="10" />
    <vehicle id="E_W_212" type="standard_car" route="E_W" depart="439.0" departLane="random" departSpeed="10" />
    <vehicle id="S_N_213" type="standard_car" route="S_N" depart="440.0" departLane="random" departSpeed="10" />
    <vehicle id="W_E_214" type="standard_car" route="W_E" depart="440.0" departLane="random" departSpeed="10" />
    <vehicle id="N_S_215" type="standard_car" route="N_S" depart="441.0" departLane="random" departSpeed="10" />
    <vehicle id="S_N_216" type="standard_car" route="S_N" depart="441.0" departLane="random" departSpeed="10" />
    <vehicle id="S_N_217" type="standard_car" route="S_N" depart="441.0" departLane="random" departSpeed="10" />
    <vehicle id="E_W_218" type="standard_car" route="E_W" depart="441.0" departLane="random" departSpeed="10" />
    <vehicle id="W_E_219" type="standard_car" route="W_E" depart="442.0" departLane="random" departSpeed="10" />
    <vehicle id="S_N_220" type="standard_car" route="S_N" depart="443.0" departLane="random" departSpeed="10" />
    <vehicle id="N_S_221" type="standard_car" route="N_S" depart="444.0" departLane="random" departSpeed="10" />
    <vehicle id="W_E_222" type="standard_car" route="W_E" depart="448.0" departLane="random" departSpeed="10" />
    <vehicle id="N_S_223" type="standard_car" route="N_S" depart="449.0" departLane="random" departSpeed="10" />
    <vehicle id="N_S_224" type="standard_car" route="N_S" depart="451.0" departLane="random" departSpeed="10" />
    <vehicle id="N_S_225" type="standard_car" route="N_S" depart="451.0" departLane="random" departSpeed="10" />
    <vehicle id="N_S_226" type="standard_car" route="N_S" depart="453.0" departLane="random" departSpeed="10" />
    <vehicle id="W_E_227" type="standard_car" route="W_E" depart="453.0" departLane="random" departSpeed="10" />
    <vehicle id="N_S_228" type="standard_car" route="N_S" depart="455.0" departLane="random" departSpeed="10" />
    <vehicle id="W_E_229" type="standard_car" route="W_E" depart="456.0" departLane="random" departSpeed="10" />
    <vehicle id="E_W_230" type="standard_car" route="E_W" depart="457.0" departLane="random" departSpeed="10" />
    <vehicle id="W_N_231" type="standard_car" route="W_N" depart="457.0" departLane="random" departSpeed="10" />
    <vehicle id="N_S_232" type="standard_car" route="N_S" depart="457.0" departLane="random" departSpeed="10" />
    <vehicle id="N_S_233" type="standard_car" route="N_S" depart="458.0" departLane="random" departSpeed="10" />
    <vehicle id="E_W_234" type="standard_car" route="E_W" depart="459.0" departLane="random" departSpeed="10" />
    <vehicle id="N_S_235" type="standard_car" route="N_S" depart="460.0" departLane="random" departSpeed="10" />
    <vehicle id="E_S_236" type="standard_car" route="E_S" depart="464.0" departLane="random" departSpeed="10" />
    <vehicle id="E_W_237" type="standard_car" route="E_W" depart="468.0" departLane="random" departSpeed="10" />
    <vehicle id="E_W_238" type="standard_car" route="E_W" depart="469.0" departLane="random" departSpeed="10" />
    <vehicle id="N_W_239" type="standard_car" route="N_W" depart="469.0" departLane="random" departSpeed="10" />
    <vehicle id="N_E_240" type="standard_car" route="N_E" depart="469.0" departLane="random" departSpeed="10" />
    <vehicle id="W_N_241" type="standard_car" route="W_N" depart="472.0" departLane="random" departSpeed="10" />
    <vehicle id="S_W_242" type="standard_car" route="S_W" depart="478.0" departLane="random" departSpeed="10" />
    <vehicle id="W_E_243" type="standard_car" route="W_E" depart="479.0" departLane="random" departSpeed="10" />
    <vehicle id="N_S_244" type="standard_car" route="N_S" depart="480.0" departLane="random" departSpeed="10" />
    <vehicle id="N_S_245" type="standard_car" route="N_S" depart="480.0" departLane="random" departSpeed="10" />
    <vehicle id="W_E_246" type="standard_car" route="W_E" depart="484.0" departLane="random" departSpeed="10" />
    <vehicle id="E_W_247" type="standard_car" route="E_W" depart="485.0" departLane="random" departSpeed="10" />
    <vehicle id="E_W_248" type="standard_car" route="E_W" depart="485.0" departLane="random" departSpeed="10" />
    <vehicle id="S_E_249" type="standard_car" route="S_E" depart="486.0" departLane="random" departSpeed="10" />
    <vehicle id="E_W_250" type="standard_car" route="E_W" depart="488.0" departLane="random" departSpeed="10" />
    <vehicle id="E_W_251" type="standard_car" route="E_W" depart="492.0" departLane="random" departSpeed="10" />
    <vehicle id="W_E_252" type="standard_car" route="W_E" depart="494.0" departLane="random" departSpeed="10" />
    <vehicle id="W_S_253" type="standard_car" route="W_S" depart="496.0" departLane="random" departSpeed="10" />
    <vehicle id="E_W_254" type="standard_car" route="E_W" depart="497.0" departLane="random" departSpeed="10" />
    <vehicle id="E_W_255" type="standard_car" route="E_W" depart="499.0" departLane="random" departSpeed="10" />
    <vehicle id="S_N_256" type="standard_car" route="S_N" depart="499.0" departLane="random" departSpeed="10" />
    <vehicle id="W_N_257" type="standard_car" route="W_N" depart="500.0" departLane="random" departSpeed="10" />
    <vehicle id="W_E_258" type="standard_car" route="W_E" depart="502.0" departLane="random" departSpeed="10" />
    <vehicle id="E_W_259" type="standard_car" route="E_W" depart="505.0" departLane="random" departSpeed="10" />