<routes>
        <vType accel="1.0" decel="4.5" id="standard_car" length="5.0" minGap="2.5" maxSpeed="25" sigma="0.5" />
        <route id="W_N" edges="W2TL TL2N"/>
        <route id="W_E" edges="W2TL TL2E"/>
        <route id="W_S" edges="W2TL TL2S"/>
        <route id="N_W" edges="N2TL TL2W"/>
        <route id="N_E" edges="N2TL TL2E"/>
        <route id="N_S" edges="N2TL TL2S"/>
        <route id="E_W" edges="E2TL TL2W"/>
        <route id="E_N" edges="E2TL TL2N"/>
        <route id="E_S" edges="E2TL TL2S"/>
        <route id="S_W" edges="S2TL TL2W"/>
        <route id="S_N" edges="S2TL TL2N"/>
        <route id="S_E" edges="S2TL TL2E"/>
    <vehicle id="E_S_0" type="standard_car" route="E_S" depart="17.0" departLane="random" departSpeed="10" />
    <vehicle id="N_S_1" type="standard_car" route="N_S" depart="41.0" departLane="random" departSpeed="10" />
    <vehicle id="S_N_2" type="standard_car" route="S_N" depart="51.0" departLane="random" departSpeed="10" />
    <vehicle id="W_E_3" type="standard_car" route="W_E" depart="55.0" departLane="random" departSpeed="10" />
    <vehicle id="S_N_4" type="standard_car" route="S_N" depart="67.0" departLane="random" departSpeed="10" />
    <vehicle id="S_N_5" type="standard_car" route="S_N" depart="70.0" departLane="random" departSpeed="10" />
    <vehicle id="N_S_6" type="standard_car" route="N_S" depart="75.0" departLane="random" departSpeed="10" />
    <vehicle id="E_W_7" type="standard_car" route="E_W" depart="79.0" departLane="random" departSpeed="10" />
    <vehicle id="N_E_8" type="standard_car" route="N_E" depart="79.0" departLane="random" departSpeed="10" />
    <vehicle id="S_N_9" type="standard_car" route="S_N" depart="91.0" departLane="random" departSpeed="10" />
    <vehicle id="S_N_10" type="standard_car" route="S_N" depart="92.0" departLane="random" departSpeed="10" />
    <vehicle id="E_W_11" type="standard_car" route="E_W" depart="105.0" departLane="random" departSpeed="10" />
    <vehicle id="N_S_12" type="standard_car" route="N_S" depart="110.0" departLane="random" departSpeed="10" />
    <vehicle id="E_W_13" type="standard_car" route="E_W" depart="113.0" departLane="random" departSpeed="10" />
    <vehicle id="S_N_14" type="standard_car" route="S_N" depart="113.0" departLane="random" departSpeed="10" />
    <vehicle id="N_W_15" type="standard_car" route="N_W" depart="116.0" departLane="random" departSpeed="10" />
    <vehicle id="S_E_16" type="standard_car" route="S_E" depart="117.0" departLane="random" departSpeed="10" />
    <vehicle id="W_E_17" type="standard_car" route="W_E" depart="118.0" departLane="random" departSpeed="10" />
    <vehicle id="E_W_18" type="standard_car" route="E_W" depart="119.0" departLane="random" departSpeed="10" />
    <vehicle id="E_S_19" type="standard_car" route="E_S" depart="123.0" departLane="random" departSpeed="10" />
    <vehicle id="E_W_20" type="standard_car" route="E_W" depart="126.0" departLane="random" departSpeed="10" />
    <vehicle id="S_N_21" type="standard_car" route="S_N" depart="129.0" departLane="random" departSpeed="10" />
    <vehicle id="S_W_22" type="standard_car" route="S_W" depart="132.0" departLane="random" departSpeed="10" />
    <vehicle id="W_E_23" type="standard_car" route="W_E" depart="134.0" departLane="random" departSpeed="10" />
    <vehicle id="S_N_24" type="standard_car" route="S_N" depart="136.0" departLane="random" departSpeed="10" />
    <vehicle id="S_N_25" type="standard_car" route="S_N" depart="139.0" departLane="random" departSpeed="10" />
    <vehicle id="S_N_26" type="standard_car" route="S_N" depart="142.0" departLane="random" departSpeed="10" />
    <vehicle id="W_E_27" type="standard_car" route="W_E" depart="144.0" departLane="random" departSpeed="10" />
    <vehicle id="S_N_28" type="standard_car" route="S_N" depart="149.0" departLane="random" departSpeed="10" />
    <vehicle id="E_N_29" type="standard_car" route="E_N" depart="151.0" departLane="random" departSpeed="10" />
    <vehicle id="W_S_30" type="standard_car" route="W_S" depart="153.0" departLane="random" departSpeed="10" />
    <vehicle id="S_N_31" type="standard_car" route="S_N" depart="157.0" departLane="random" departSpeed="10" />
    <vehicle id="E_W_32" type="standard_car" route="E_W" depart="162.0" departLane="random" departSpeed="10" />
    <vehicle id="S_E_33" type="standard_car" route="S_E" depart="163.0" departLane="random" departSpeed="10" />
    <vehicle id="S_N_34" type="standard_car" route="S_N" depart="168.0" departLane="random" departSpeed="10" />
    <vehicle id="N_S_35" type="standard_car" route="N_S" depart="171.0" departLane="random" departSpeed="10" />
    <vehicle id="E_S_36" type="standard_car" route="E_S" depart="173.0" departLane="random" departSpeed="10" />
    <vehicle id="S_N_37" type="standard_car" route="S_N" depart="177.0" departLane="random" departSpeed="10" />
    <vehicle id="S_N_38" type="standard_car" route="S_N" depart="185.0" departLane="random" departSpeed="10" />
    <vehicle id="E_W_39" type="standard_car" route="E_W" depart="186.0" departLane="random" departSpeed="10" />
    <vehicle id="N_W_40" type="standard_car" route="N_W" depart="189.0" departLane="random" departSpeed="10" />
    <vehicle id="W_E_41" type="standard_car" route="W_E" depart="190.0" departLane="random" departSpeed="10" />
    <vehicle id="S_N_42" type="standard_car" route="S_N" depart="192.0" departLane="random" departSpeed="10" />
    <vehicle id="N_S_43" type="standard_car" route="N_S" depart="193.0" departLane="random" departSpeed="10" />
    <vehicle id="W_N_44" type="standard_car" route="W_N" depart="197.0" departLane="random" departSpeed="10" />
    <vehicle id="W_N_45" type="standard_car" route="W_N" depart="203.0" departLane="random" departSpeed="10" />
    <vehicle id="N_S_46" type="standard_car" route="N_S" depart="206.0" departLane="random" departSpeed="10" />
    <vehicle id="S_N_47" type="standard_car" route="S_N" depart="206.0" departLane="random" departSpeed="10" />
    <vehicle id="E_W_48" type="standard_car" route="E_W" depart="213.0" departLane="random" departSpeed="10" />
    <vehicle id="S_N_49" type="standard_car" route="S_N" depart="213.0" departLane="random" departSpeed="10" />
    <vehicle id="N_E_50" type="standard_car" route="N_E" depart="216.0" departLane="random" departSpeed="10" />
    <vehicle id="S_N_51" type="standard_car" route="S_N" depart="216.0" departLane="random" departSpeed="10" />
    <vehicle id="W_E_52" type="standard_car" route="W_E" depart="216.0" departLane="random" departSpeed="10" />
    <vehicle id="S_N_53" type="standard_car" route="S_N" depart="217.0" departLane="random" departSpeed="10" />
    <vehicle id="S_N_54" type="standard_car" route="S_N" depart="217.0" departLane="random" departSpeed="10" />
    <vehicle id="S_N_55" type="standard_car" route="S_N" depart="217.0" departLane="random" departSpeed="10" />
    <vehicle id="N_W_56" type="standard_car" route="N_W" depart="220.0" departLane="random" departSpeed="10" />
    <vehicle id="S_N_57" type="standard_car" route="S_N" depart="220.0" departLane="random" departSpeed="10" />
    <vehicle id="N_S_58" type="standard_car" route="N_S" depart="226.0" departLane="random" departSpeed="10" />
    <vehicle id="N_E_59" type="standard_car" route="N_E" depart="227.0" departLane="random" departSpeed="10" />
    <vehicle id="N_S_60" type="standard_car" route="N_S" depart="228.0" departLane="random" departSpeed="10" />
    <vehicle id="E_S_61" type="standard_car" route="E_S" depart="231.0" departLane="random" departSpeed="10" />
    <vehicle id="N_S_62" type="standard_car" route="N_S" depart="232.0" departLane="random" departSpeed="10" />
    <vehicle id="S_E_63" type="standard_car" route="S_E" depart="232.0" departLane="random" departSpeed="10" />
    <vehicle id="E_W_64" type="standard_car" route="E_W" depart="235.0" departLane="random" departSpeed="10" />
    <vehicle id="E_W_65" type="standard_car" route="E_W" depart="236.0" departLane="random" departSpeed="10" />
    <vehicle id="N_S_66" type="standard_car" route="N_S" depart="237.0" departLane="random" departSpeed="10" />
    <vehicle id="N_S_67" type="standard_car" route="N_S" depart="237.0" departLane="random" departSpeed="10" />
    <vehicle id="N_S_68" type="standard_car" route="N_S" depart="237.0" departLane="random" departSpeed="10" />
    <vehicle id="W_S_69" type="standard_car" route="W_S" depart="239.0" departLane="random" departSpeed="10" />
    <vehicle id="S_W_70" type="standard_car" route="S_W" depart="240.0" departLane="random" departSpeed="10" />
    <vehicle id="S_N_71" type="standard_car" route="S_N" depart="244.0" departLane="random" departSpeed="10" />
    <vehicle id="W_E_72" type="standard_car" route="W_E" depart="245.0" departLane="random" departSpeed="10" />
    <vehicle id="W_E_73" type="standard_car" route="W_E" depart="247.0" departLane="random" departSpeed="10" />
    <vehicle id="E_N_74" type="standard_car" route="E_N" depart="248.0" departLane="random" departSpeed="10" />
    <vehicle id="S_N_75" type="standard_car" route="S_N" depart="248.0" departLane="random" departSpeed="10" />
    <vehicle id="E_W_76" type="standard_car" route="E_W" depart="252.0" departLane="random" departSpeed="10" />
    <vehicle id="S_N_77" type="standard_car" route="S_N" depart="252.0" departLane="random" departSpeed="10" />
    <vehicle id="S_N_78" type="standard_car" route="S_N" depart="254.0" departLane="random" departSpeed="10" />
    <vehicle id="S_W_79" type="standard_car" route="S_W" depart="257.0" departLane="random" departSpeed="10" />
    <vehicle id="E_W_80" type="standard_car" route="E_W" depart="257.0" departLane="random" departSpeed="10" />
    <vehicle id="S_E_81" type="standard_car" route="S_E" depart="260.0" departLane="random" departSpeed="10" />
    <vehicle id="W_N_82" type="standard_car" route="W_N" depart="261.0" departLane="random" departSpeed="10" />
    <vehicle id="E_W_83" type="standard_car" route="E_W" depart="262.0" departLane="random" departSpeed="10" />
    <vehicle id="E_W_84" type="standard_car" route="E_W" depart="262.0" departLane="random" departSpeed="10" />
    <vehicle id="W_E_85" type="standard_car" route="W_E" depart="262.0" departLane="random" departSpeed="10" />
    <vehicle id="S_W_86" type="standard_car" route="S_W" depart="264.0" departLane="random" departSpeed="10" />
    <vehicle id="S_N_87" type="standard_car" route="S_N" depart="265.0" departLane="random" departSpeed="10" />
    <vehicle id="S_N_88" type="standard_car" route="S_N" depart="266.0" departLane="random" departSpeed="10" />
    <vehicle id="N_S_89" type="standard_car" route="N_S" depart="267.0" departLane="random" departSpeed="10" />
    <vehicle id="S_N_90" type="standard_car" route="S_N" depart="267.0" departLane="random" departSpeed="10" />
    <vehicle id="S_N_91" type="standard_car" route="S_N" depart="269.0" departLane="random" departSpeed="10" />
    <vehicle id="E_N_92" type="standard_car" route="E_N" depart="271.0" departLane="random" departSpeed="10" />
    <vehicle id="N_S_93" type="standard_car" route="N_S" depart="272.0" departLane="random" departSpeed="10" />
    <vehicle id="N_S_94" type="standard_car" route="N_S" depart="273.0" departLane="random" departSpeed="10" />
    <vehicle id="N_W_95" type="standard_car" route="N_W" depart="274.0" departLane="random" departSpeed="10" />
    <vehicle id="E_S_96" type="standard_car" route="E_S" depart="274.0" departLane="random" departSpeed="10" />
    <vehicle id="E_S_97" type="standard_car" route="E_S" depart="275.0" departLane="random" departSpeed="10" />
    <vehicle id="S_N_98" type="standard_car" route="S_N" depart="277.0" departLane="random" departSpeed="10" />
    <vehicle id="N_S_99" type="standard_car" route="N_S" depart="285.0" departLane="random" departSpeed="10" />
    <vehicle id="N_S_100" type="standard_car" route="N_S" depart="285.0" departLane="random" departSpeed="10" />
    <vehicle id="N_S_101" type="standard_car" route="N_S" depart="290.0" departLane="random" departSpeed="10" />
    <vehicle id="E_W_102" type="standard_car" route="E_W" depart="291.0" departLane="random" departSpeed="10" />
    <vehicle id="S_W_103" type="standard_car" route="S_W" depart="293.0" departLane="random" departSpeed="10" />
    <vehicle id="W_E_104" type="standard_car" route="W_E" depart="294.0" departLane="random" departSpeed="10" />
    <vehicle id="S_N_105" type="standard_car" route="S_N" depart="296.0" departLane="random" departSpeed="10" />
    <vehicle id="E_N_106" type="standard_car" route="E_N" depart="297.0" departLane="random" departSpeed="10" />
    <vehicle id="E_W_107" type="standard_car" route="E_W" depart="298.0" departLane="random" departSpeed="10" />
    <vehicle id="N_W_108" type="standard_car" route="N_W" depart="301.0" departLane="random" departSpeed="10" />
    <vehicle id="N_S_109" type="standard_car" route="N_S" depart="304.0" departLane="random" departSpeed="10" />
    <vehicle id="N_S_110" type="standard_car" route="N_S" depart="306.0" departLane="random" departSpeed="10" />
    <vehicle id="N_S_111" type="standard_car" route="N_S" depart="312.0" departLane="random" departSpeed="10" />
    <vehicle id="E_W_112" type="standard_car" route="E_W" depart="312.0" departLane="random" departSpeed="10" />
    <vehicle id="S_N_113" type="standard_car" route="S_N" depart="313.0" departLane="random" departSpeed="10" />
    <vehicle id="E_W_114" type="standard_car" route="E_W" depart="315.0" departLane="random" departSpeed="10" />
    <vehicle id="W_S_115" type="standard_car" route="W_S" depart="316.0" departLane="random" departSpeed="10" />
    <vehicle id="W_E_116" type="standard_car" route="W_E" depart="318.0" departLane="random" departSpeed="10" />
    <vehicle id="E_W_117" type="standard_car" route="E_W" depart="320.0" departLane="random" departSpeed="10" />
    <vehicle id="N_E_118" type="standard_car" route="N_E" depart="322.0" departLane="random" departSpeed="10" />
    <vehicle id="E_N_119" type="standard_car" route="E_N" depart="322.0" departLane="random" departSpeed="10" />
    <vehicle id="E_N_120" type="standard_car" route="E_N" depart="323.0" departLane="random" departSpeed="10" />
    <vehicle id="W_E_121" type="standard_car" route="W_E" depart="328.0" departLane="random" departSpeed="10" />
    <vehicle id="N_S_122" type="standard_car" route="N_S" depart="330.0" departLane="random" departSpeed="10" />
    <vehicle id="N_S_123" type="standard_car" route="N_S" depart="335.0" departLane="random" departSpeed="10" />
    <vehicle id="E_W_124" type="standard_car" route="E_W" depart="335.0" departLane="random" departSpeed="10" />
    <vehicle id="S_N_125" type="standard_car" route="S_N" depart="335.0" departLane="random" departSpeed="10" />
    <vehicle id="W_E_126" type="standard_car" route="W_E" depart="337.0" departLane="random" departSpeed="10" />
    <vehicle id="N_S_127" type="standard_car" route="N_S" depart="338.0" departLane="random" departSpeed="10" />
    <vehicle id="N_W_128" type="standard_car" route="N_W" depart="340.0" departLane="random" departSpeed="10" />
    <vehicle id="W_E_129" type="standard_car" route="W_E" depart="340.0" departLane="random" departSpeed="10" />
    <vehicle id="E_W_130" type="standard_car" route="E_W" depart="341.0" departLane="random" departSpeed="10" />
    <vehicle id="W_E_131" type="standard_car" route="W_E" depart="344.0" departLane="random" departSpeed="10" />
    <vehicle id="E_W_132" type="standard_car" route="E_W" depart="348.0" departLane="random" departSpeed="10" />
    <vehicle id="E_W_133" type="standard_car" route="E_W" depart="349.0" departLane="random" departSpeed="10" />
    <vehicle id="W_E_134" type="standard_car" route="W_E" depart="351.0" departLane="random" departSpeed="10" />
    <vehicle id="S_N_135" type="standard_car" route="S_N" depart="351.0" departLane="random" departSpeed="10" />
    <vehicle id="E_W_136" type="standard_car" route="E_W" depart="352.0" departLane="random" departSpeed="10" />
    <vehicle id="S_N_137" type="standard_car" route="S_N" depart="352.0" departLane="random" departSpeed="10" />
    <vehicle id="N_S_138" type="standard_car" route="N_S" depart="358.0" departLane="random" departSpeed="10" />
    <vehicle id="E_W_139" type="standard_car" route="E_W" depart="358.0" departLane="random" departSpeed="10" />
    <vehicle id="S_N_140" type="standard_car" route="S_N" depart="359.0" departLane="random" departSpeed="10" />
    <vehicle id="W_E_141" type="standard_car" route="W_E" depart="359.0" departLane="random" departSpeed="10" />
    <vehicle id="N_S_142" type="standard_car" route="N_S" depart="360.0" departLane="random" departSpeed="10" />
    <vehicle id="W_E_143" type="standard_car" route="W_E" depart="360.0" departLane="random" departSpeed="10" />
    <vehicle id="E_W_144" type="standard_car" route="E_W" depart="360.0" departLane="random" departSpeed="10" />
    <vehicle id="E_S_145" type="standard_car" route="E_S" depart="360.0" departLane="random" departSpeed="10" />
    <vehicle id="W_E_146" type="standard_car" route="W_E" depart="362.0" departLane="random" departSpeed="10" />
    <vehicle id="S_E_147" type="standard_car" route="S_E" depart="363.0" departLane="random" departSpeed="10" />
    <vehicle id="W_E_148" type="standard_car" route="W_E" depart="363.0" departLane="random" departSpeed="10" />
    <vehicle id="N_S_149" type="standard_car" route="N_S" depart="363.0" departLane="random" departSpeed="10" />
    <vehicle id="W_E_150" type="standard_car" route="W_E" depart="367.0" departLane="random" departSpeed="10" />
    <vehicle id="S_W_151" type="standard_car" route="S_W" depart="367.0" departLane="random" departSpeed="10" />
    <vehicle id="E_S_152" type="standard_car" route="E_S" depart="369.0" departLane="random" departSpeed="10" />
    <vehicle id="S_N_153" type="standard_car" route="S_N" depart="369.0" departLane="random" departSpeed="10" />
    <vehicle id="N_E_154" type="standard_car" route="N_E" depart="371.0" departLane="random" departSpeed="10" />
    <vehicle id="S_N_155" type="standard_car" route="S_N" depart="372.0" departLane="random" departSpeed="10" />
    <vehicle id="S_E_156" type="standard_car" route="S_E" depart="374.0" departLane="random" departSpeed="10" />
    <vehicle id="E_W_157" type="standard_car" route="E_W" depart="378.0" departLane="random" departSpeed="10" />
    <vehicle id="E_W_158" type="standard_car" route="E_W" depart="379.0" departLane="random" departSpeed="10" />
    <vehicle id="W_E_159" type="standard_car" route="W_E" depart="380.0" departLane="random" departSpeed="10" />
    <vehicle id="S_N_160" type="standard_car" route="S_N" depart="381.0" departLane="random" departSpeed="10" />
    <vehicle id="N_S_161" type="standard_car" route="N_S" depart="382.0" departLane="random" departSpeed="10" />
    <vehicle id="W_E_162" type="standard_car" route="W_E" depart="382.0" departLane="random" departSpeed="10" />
    <vehicle id="W_E_163" type="standard_car" route="W_E" depart="383.0" departLane="random" departSpeed="10" />
    <vehicle id="E_W_164" type="standard_car" route="E_W" depart="384.0" departLane="random" departSpeed="10" />
    <vehicle id="E_W_165" type="standard_car" route="E_W" depart="384.0" departLane="random" departSpeed="10" />
    <vehicle id="S_N_166" type="standard_car" route="S_N" depart="385.0" departLane="random" departSpeed="10" />
    <vehicle id="S_N_167" type="standard_car" route="S_N" depart="388.0" departLane="random" departSpeed="10" />
    <vehicle id="N_S_168" type="standard_car" route="N_S" depart="390.0" departLane="random" departSpeed="10" />
    <vehicle id="N_S_169" type="standard_car" route="N_S" depart="390.0" departLane="random" departSpeed="10" />
    <vehicle id="S_N_170" type="standard_car" route="S_N" depart="391.0" departLane="random" departSpeed="10" />
    <vehicle id="N_S_171" type="standard_car" route="N_S" depart="391.0" departLane="random" departSpeed="10" />
    <vehicle id="E_W_172" type="standard_car" route="E_W" depart="392.0" departLane="random" departSpeed="10" />
    <vehicle id="W_S_173" type="standard_car" route="W_S" depart="393.0" departLane="random" departSpeed="10" />
    <vehicle id="N_W_174" type="standard_car" route="N_W" depart="396.0" departLane="random" departSpeed="10" />
    <vehicle id="S_E_175" type="standard_car" route="S_E" depart="396.0" departLane="random" departSpeed="10" />
    <vehicle id="S_N_176" type="standard_car" route="S_N" depart="401.0" departLane="random" departSpeed="10" />
    <vehicle id="W_E_177" type="standard_car" route="W_E" depart="407.0" departLane="random" departSpeed="10" />
    <vehicle id="S_N_178" type="standard_car" route="S_N" depart="407.0" departLane="random" departSpeed="10" />
    <vehicle id="S_E_179" type="standard_car" route="S_E" depart="409.0" departLane="random" departSpeed="10" />
    <vehicle id="N_S_180" type="standard_car" route="N_S" depart="409.0" departLane="random" departSpeed="10" />
    <vehicle id="E_W_181" type="standard_car" route="E_W" depart="410.0" departLane="random" departSpeed="10" />
    <vehicle id="W_E_182" type="standard_car" route="W_E" depart="410.0" departLane="random" departSpeed="10" />
    <vehicle id="E_S_183" type="standard_car" route="E_S" depart="412.0" departLane="random" departSpeed="10" />
    <vehicle id="W_E_184" type="standard_car" route="W_E" depart="415.0" departLane="random" departSpeed="10" />
    <vehicle id="N_S_185" type="standard_car" route="N_S" depart="415.0" departLane="random" departSpeed="10" />
    <vehicle id="S_N_186" type="standard_car" route="S_N" depart="417.0" departLane="random" departSpeed="10" />
    <vehicle id="E_N_187" type="standard_car" route="E_N" depart="418.0" departLane="random" departSpeed="10" />
    <vehicle id="N_S_188" type="standard_car" route="N_S" depart="424.0" departLane="random" departSpeed="10" />
    <vehicle id="W_E_189" type="standard_car" route="W_E" depart="428.0" departLane="random" departSpeed="10" />
    <vehicle id="N_S_190" type="standard_car" route="N_S" depart="430.0" departLane="random" departSpeed="10" />
    <vehicle id="S_N_191" type="standard_car" route="S_N" depart="431.0" departLane="random" departSpeed="10" />
    <vehicle id="W_E_192" type="standard_car" route="W_E" depart="434.0" departLane="random" departSpeed="10" />
    <vehicle id="E_W_193" type="standard_car" route="E_W" depart="434.0" departLane="random" departSpeed="10" />
    <vehicle id="N_S_194" type="standard_car" route="N_S" depart="436.0" departLane="random" departSpeed="10" />
    <vehicle id="N_W_195" type="standard_car" route="N_W" depart="437.0" departLane="random" departSpeed="10" />
    <vehicle id="S_W_196" type="standard_car" route="S_W" depart="437.0" departLane="random" departSpeed="10" />
    <vehicle id="N_S_197" type="standard_car" route="N_S" depart="438.0" departLane="random" departSpeed="10" />
    <vehicle id="E_W_198" type="standard_car" route="E_W" depart="439.0" departLane="random" departSpeed="10" />
    <vehicle id="S_N_199" type="standard_car" route="S_N" depart="441.0" departLane="random" departSpeed="10" />
    <vehicle id="W_E_200" type="standard_car" route="W_E" depart="441.0" departLane="random" departSpeed="10" />
    <vehicle id="W_E_201" type="standard_car" route="W_E" depart="441.0" departLane="random" departSpeed="10" />
    <vehicle id="S_N_202" type="standard_car" route="S_N" depart="442.0" departLane="random" departSpeed="10" />
    <vehicle id="W_S_203" type="standard_car" route="W_S" depart="442.0" departLane="random" departSpeed="10" />
    <vehicle id="N_E_204" type="standard_car" route="N_E" depart="443.0" departLane="random" departSpeed="10" />
    <vehicle id="W_E_205" type="standard_car" route="W_E" depart="445.0" departLane="random" departSpeed="10" />
    <vehicle id="S_N_206" type="standard_car" route="S_N" depart="445.0" departLane="random" departSpeed="10" />
    <vehicle id="W_E_207" type="standard_car" route="W_E" depart="445.0" departLane="random" departSpeed="10" />
    <vehicle id="W_E_208" type="standard_car" route="W_E" depart="446.0" departLane="random" departSpeed="10" />
    <vehicle id="S_N_209" type="standard_car" route="S_N" depart="446.0" departLane="random" departSpeed="10" />
    <vehicle id="W_E_210" type="standard_car" route="W_E" depart="447.0" departLane="random" departSpeed="10" />
    <vehicle id="E_W_211" type="standard_car" route="E_W" depart="450.0" departLane="random" departSpeed="10" />
    <vehicle id="N_E_212" type="standard_car" route="N_E" depart="450.0" departLane="random" departSpeed="10" />
    <vehicle id="N_S_213" type="standard_car" route="N_S" depart="450.0" departLane="random" departSpeed="10" />
    <vehicle id="E_W_214" type="standard_car" route="E_W" depart="450.0" departLane="random" departSpeed="10" />
    <vehicle id="E_W_215" type="standard_car" route="E_W" depart="451.0" departLane="random" departSpeed="10" />
    <vehicle id="W_E_216" type="standard_car" route="W_E" depart="459.0" departLane="random" departSpeed="10" />
    <vehicle id="E_N_217" type="standard_car" route="E_N" depart="461.0" departLane="random" departSpeed="10" />
    <vehicle id="S_E_218" type="standard_car" route="S_E" depart="462.0" departLane="random" departSpeed="10" />
    <vehicle id="E_N_219" type="standard_car" route="E_N" depart="462.0" departLane="random" departSpeed="10" />
    <vehicle id="W_E_220" type="standard_car" route="W_E" depart="464.0" departLane="random" departSpeed="10" />
    <vehicle id="N_W_221" type="standard_car" route="N_W" depart="464.0" departLane="random" departSpeed="10" />
    <vehicle id="S_N_222" type="standard_car" route="S_N" depart="464.0" departLane="random" departSpeed="10" />
    <vehicle id="N_S_223" type="standard_car" route="N_S" depart="465.0" departLane="random" departSpeed="10" />
    <vehicle id="W_E_224" type="standard_car" route="W_E" depart="467.0" departLane="random" departSpeed="10" />
    <vehicle id="S_N_225" type="standard_car" route="S_N" depart="467.0" departLane="random" departSpeed="10" />
    <vehicle id="N_S_226" type="standard_car" route="N_S" depart="468.0" departLane="random" departSpeed="10" />
    <vehicle id="W_N_227" type="standard_car" route="W_N" depart="469.0" departLane="random" departSpeed="10" />
    <vehicle id="W_N_228" type="standard_car" route="W_N" depart="470.0" departLane="random" departSpeed="10" />
    <vehicle id="E_W_229" type="standard_car" route="E_W" depart="471.0" departLane="random" departSpeed="10" />
    <vehicle id="W_E_230" type="standard_car" route="W_E" depart="471.0" departLane="random" departSpeed="10" />
    <vehicle id="S_N_231" type="standard_car" route="S_N" depart="472.0" departLane="random" departSpeed="10" />
    <vehicle id="N_S_232" type="standard_car" route="N_S" depart="472.0" departLane="random" departSpeed="10" />
    <vehicle id="N_W_233" type="standard_car" route="N_W" depart="472.0" departLane="random" departSpeed="10" />
    <vehicle id="W_E_234" type="standard_car" route="W_E" depart="472.0" departLane="random" departSpeed="10" />
    <vehicle id="S_W_235" type="standard_car" route="S_W" depart="474.0" departLane="random" departSpeed="10" />
    <vehicle id="N_S_236" type="standard_car" route="N_S" depart="477.0" departLane="random" departSpeed="10" />
    <vehicle id="E_W_237" type="standard_car" route="E_W" depart="478.0" departLane="random" departSpeed="10" />
    <vehicle id="W_E_238" type="standard_car" route="W_E" depart="479.0" departLane="random" departSpeed="10" />
    <vehicle id="W_E_239" type="standard_car" route="W_E" depart="480.0" departLane="random" departSpeed="10" />
    <vehicle id="W_E_240" type="standard_car" route="W_E" depart="481.0" departLane="random" departSpeed="10" />
    <vehicle id="W_N_241" type="standard_car" route="W_N" depart="483.0" departLane="random" departSpeed="10" />
    <vehicle id="N_S_242" type="standard_car" route="N_S" depart="485.0" departLane="random" departSpeed="10" />
    <vehicle id="S_N_243" type="standard_car" route="S_N" depart="486.0" departLane="random" departSpeed="10" />
    <vehicle id="E_W_244" type="standard_car" route="E_W" depart="489.0" departLane="random" departSpeed="10" />
    <vehicle id="S_N_245" type="standard_car" route="S_N" depart="489.0" departLane="random" departSpeed="10" />
    <vehicle id="W_E_246" type="standard_car" route="W_E" depart="489.0" departLane="random" departSpeed="10" />
    <vehicle id="N_S_247" type="standard_car" route="N_S" depart="490.0" departLane="random" departSpeed="10" />
    <vehicle id="W_E_248" type="standard_car" route="W_E" depart="494.0" departLane="random" departSpeed="10" />
    <vehicle id="E_W_249" type="standard_car" route="E_W" depart="495.0" departLane="random" departSpeed="10" />
    <vehicle id="S_N_250" type="standard_car" route="S_N" depart="497.0" departLane="random" departSpeed="10" />
    <vehicle id="S_N_251" type="standard_car" route="S_N" depart="498.0" departLane="random" departSpeed="10" />
    <vehicle id="E_W_252" type="standard_car" route="E_W" depart="498.0" departLane="random" departSpeed="10" />
    <vehicle id="S_N_253" type="standard_car" route="S_N" depart="499.0" departLane="random" departSpeed="10" />
    <vehicle id="S_E_254" type="standard_car" route="S_E" depart="500.0" departLane="random" departSpeed="10" />
    <vehicle id="E_N_255" type="standard_car" route="E_N" depart="501.0" departLane="random" departSpeed="10" />
    <vehicle id="W_E_256" type="standard_car" route="W_E" depart="503.0" departLane="random" departSpeed="10" />
    <vehicle id="E_W_257" type="standard_car" route="E_W" depart="503.0" departLane="random" departSpeed="10" />
    <vehicle id="N_S_258" type="standard_car" route="N_S" depart="504.0" departLane="random" departSpeed="10" />
    <vehicle id="S_N_259" type="standard_car" route="S_N" depart="505.0" departLane="random" departSpeed="10" />