<routes>
        <vType accel="1.0" decel="4.5" id="standard_car" length="5.0" minGap="2.5" maxSpeed="25" sigma="0.5" />
        <route id="W_N" edges="W2TL TL2N"/>
        <route id="W_E" edges="W2TL TL2E"/>
        <route id="W_S" edges="W2TL TL2S"/>
        <route id="N_W" edges="N2TL TL2W"/>
        <route id="N_E" edges="N2TL TL2E"/>
        <route id="N_S" edges="N2TL TL2S"/>
        <route id="E_W" edges="E2TL TL2W"/>
        <route id="E_N" edges="E2TL TL2N"/>
        <route id="E_S" edges="E2TL TL2S"/>
        <route id="S_W" edges="S2TL TL2W"/>
        <route id="S_N" edges="S2TL TL2N"/>
        <route id="S_E" edges="S2TL TL2E"/>
    <vehicle id="S_W_0" type="standard_car" route="S_W" depart="34.0" departLane="random" departSpeed="10" />
    <vehicle id="E_N_1" type="standard_car" route="E_N" depart="39.0" departLane="random" departSpeed="10" />
    <vehicle id="E_W_2" type="standard_car" route="E_W" depart="52.0" departLane="random" departSpeed="10" />
    <vehicle id="S_W_3" type="standard_car" route="S_W" depart="62.0" departLane="random" departSpeed="10" />
    <vehicle id="W_E_4" type="standard_car" route="W_E" depart="71.0" departLane="random" departSpeed="10" />
    <vehicle id="N_S_5" type="standard_car" route="N_S" depart="92.0" departLane="random" departSpeed="10" />
    <vehicle id="W_E_6" type="standard_car" route="W_E" depart="96.0" departLane="random" departSpeed="10" />
    <vehicle id="N_E_7" type="standard_car" route="N_E" depart="97.0" departLane="random" departSpeed="10" />
    <vehicle id="E_S_8" type="standard_car" route="E_S" depart="131.0" departLane="random" departSpeed="10" />
    <vehicle id="E_W_9" type="standard_car" route="E_W" depart="132.0" departLane="random" departSpeed="10" />
    <vehicle id="S_N_10" type="standard_car" route="S_N" depart="135.0" departLane="random" departSpeed="10" />
    <vehicle id="N_S_11" type="standard_car" route="N_S" depart="139.0" departLane="random" departSpeed="10" />
    <vehicle id="N_E_12" type="standard_car" route="N_E" depart="141.0" departLane="random" departSpeed="10" />
    <vehicle id="W_E_13" type="standard_car" route="W_E" depart="142.0" departLane="random" departSpeed="10" />
    <vehicle id="N_S_14" type="standard_car" route="N_S" depart="144.0" departLane="random" departSpeed="10" />
    <vehicle id="S_N_15" type="standard_car" route="S_N" depart="145.0" departLane="random" departSpeed="10" />
    <vehicle id="W_E_16" type="standard_car" route="W_E" depart="146.0" departLane="random" departSpeed="10" />
    <vehicle id="S_W_17" type="standard_car" route="S_W" depart="160.0" departLane="random" departSpeed="10" />
    <vehicle id="W_E_18" type="standard_car" route="W_E" depart="162.0" departLane="random" departSpeed="10" />
    <vehicle id="W_E_19" type="standard_car" route="W_E" depart="162.0" departLane="random" departSpeed="10" />
    <vehicle id="N_S_20" type="standard_car" route="N_S" depart="169.0" departLane="random" departSpeed="10" />
    <vehicle id="N_S_21" type="standard_car" route="N_S" depart="172.0" departLane="random" departSpeed="10" />
    <vehicle id="S_W_22" type="standard_car" route="S_W" depart="175.0" departLane="random" departSpeed="10" />
    <vehicle id="N_S_23" type="standard_car" route="N_S" depart="175.0" departLane="random" departSpeed="10" />
    <vehicle id="W_E_24" type="standard_car" route="W_E" depart="183.0" departLane="random" departSpeed="10" />
    <vehicle id="E_W_25" type="standard_car" route="E_W" depart="185.0" departLane="random" departSpeed="10" />
    <vehicle id="N_S_26" type="standard_car" route="N_S" depart="188.0" departLane="random" departSpeed="10" />
    <vehicle id="E_W_27" type="standard_car" route="E_W" depart="196.0" departLane="random" departSpeed="10" />
    <vehicle id="W_E_28" type="standard_car" route="W_E" depart="196.0" departLane="random" departSpeed="10" />
    <vehicle id="N_E_29" type="standard_car" route="N_E" depart="202.0" departLane="random" departSpeed="10" />
    <vehicle id="S_N_30" type="standard_car" route="S_N" depart="208.0" departLane="random" departSpeed="10" />
    <vehicle id="N_E_31" type="standard_car" route="N_E" depart="209.0" departLane="random" departSpeed="10" />
    <vehicle id="N_S_32" type="standard_car" route="N_S" depart="210.0" departLane="random" departSpeed="10" />
    <vehicle id="N_S_33" type="standard_car" route="N_S" depart="212.0" departLane="random" departSpeed="10" />
    <vehicle id="S_N_34" type="standard_car" route="S_N" depart="214.0" departLane="random" departSpeed="10" />
    <vehicle id="N_S_35" type="standard_car" route="N_S" depart="218.0" departLane="random" departSpeed="10" />
    <vehicle id="E_S_36" type="standard_car" route="E_S" depart="219.0" departLane="random" departSpeed="10" />
    <vehicle id="N_S_37" type="standard_car" route="N_S" depart="222.0" departLane="random" departSpeed="10" />
    <vehicle id="S_N_38" type="standard_car" route="S_N" depart="227.0" departLane="random" departSpeed="10" />
    <vehicle id="S_N_39" type="standard_car" route="S_N" depart="227.0" departLane="random" departSpeed="10" />
    <vehicle id="W_N_40" type="standard_car" route="W_N" depart="227.0" departLane="random" departSpeed="10" />
    <vehicle id="N_S_41" type="standard_car" route="N_S" depart="235.0" departLane="random" departSpeed="10" />
    <vehicle id="E_W_42" type="standard_car" route="E_W" depart="241.0" departLane="random" departSpeed="10" />
    <vehicle id="E_W_43" type="standard_car" route="E_W" depart="241.0" departLane="random" departSpeed="10" />
    <vehicle id="E_W_44" type="standard_car" route="E_W" depart="243.0" departLane="random" departSpeed="10" />
    <vehicle id="W_E_45" type="standard_car" route="W_E" depart="243.0" departLane="random" departSpeed="10" />
    <vehicle id="S_N_46" type="standard_car" route="S_N" depart="244.0" departLane="random" departSpeed="10" />
    <vehicle id="E_W_47" type="standard_car" route="E_W" depart="244.0" departLane="random" departSpeed="10" />
    <vehicle id="W_E_48" type="standard_car" route="W_E" depart="247.0" departLane="random" departSpeed="10" />
    <vehicle id="E_W_49" type="standard_car" route="E_W" depart="249.0" departLane="random" departSpeed="10" />
    <vehicle id="S_N_50" type="standard_car" route="S_N" depart="249.0" departLane="random" departSpeed="10" />
    <vehicle id="W_N_51" type="standard_car" route="W_N" depart="250.0" departLane="random" departSpeed="10" />
    <vehicle id="E_W_52" type="standard_car" route="E_W" depart="253.0" departLane="random" departSpeed="10" />
    <vehicle id="W_S_53" type="standard_car" route="W_S" depart="253.0" departLane="random" departSpeed="10" />
    <vehicle id="S_W_54" type="standard_car" route="S_W" depart="257.0" departLane="random" departSpeed="10" />
    <vehicle id="S_N_55" type="standard_car" route="S_N" depart="260.0" departLane="random" departSpeed="10" />
    <vehicle id="N_S_56" type="standard_car" route="N_S" depart="260.0" departLane="random" departSpeed="10" />
    <vehicle id="E_W_57" type="standard_car" route="E_W" depart="262.0" departLane="random" departSpeed="10" />
    <vehicle id="N_E_58" type="standard_car" route="N_E" depart="262.0" departLane="random" departSpeed="10" />
    <vehicle id="S_N_59" type="standard_car" route="S_N" depart="262.0" departLane="random" departSpeed="10" />
    <vehicle id="E_S_60" type="standard_car" route="E_S" depart="263.0" departLane="random" departSpeed="10" />
    <vehicle id="S_N_61" type="standard_car" route="S_N" depart="265.0" departLane="random" departSpeed="10" />
    <vehicle id="W_E_62" type="standard_car" route="W_E" depart="266.0" departLane="random" departSpeed="10" />
    <vehicle id="N_E_63" type="standard_car" route="N_E" depart="268.0" departLane="random" departSpeed="10" />
    <vehicle id="W_E_64" type="standard_car" route="W_E" depart="270.0" departLane="random" departSpeed="10" />
    <vehicle id="E_S_65" type="standard_car" route="E_S" depart="275.0" departLane="random" departSpeed="10" />
    <vehicle id="S_N_66" type="standard_car" route="S_N" depart="276.0" departLane="random" departSpeed="10" />
    <vehicle id="W_E_67" type="standard_car" route="W_E" depart="276.0" departLane="random" departSpeed="10" />
    <vehicle id="W_E_68" type="standard_car" route="W_E" depart="277.0" departLane="random" departSpeed="10" />
    <vehicle id="S_N_69" type="standard_car" route="S_N" depart="283.0" departLane="random" departSpeed="10" />
    <vehicle id="E_W_70" type="standard_car" route="E_W" depart="285.0" departLane="random" departSpeed="10" />
    <vehicle id="S_N_71" type="standard_car" route="S_N" depart="293.0" departLane="random" departSpeed="10" />
    <vehicle id="W_S_72" type="standard_car" route="W_S" depart="295.0" departLane="random" departSpeed="10" />
    <vehicle id="N_S_73" type="standard_car" route="N_S" depart="298.0" departLane="random" departSpeed="10" />
    <vehicle id="W_N_74" type="standard_car" route="W_N" depart="306.0" departLane="random" departSpeed="10" />
    <vehicle id="W_S_75" type="standard_car" route="W_S" depart="310.0" departLane="random" departSpeed="10" />
    <vehicle id="E_W_76" type="standard_car" route="E_W" depart="310.0" departLane="random" departSpeed="10" />
    <vehicle id="S_N_77" type="standard_car" route="S_N" depart="312.0" departLane="random" departSpeed="10" />
    <vehicle id="E_S_78" type="standard_car" route="E_S" depart="313.0" departLane="random" departSpeed="10" />
    <vehicle id="N_S_79" type="standard_car" route="N_S" depart="315.0" departLane="random" departSpeed="10" />
    <vehicle id="E_W_80" type="standard_car" route="E_W" depart="318.0" departLane="random" departSpeed="10" />
    <vehicle id="S_N_81" type="standard_car" route="S_N" depart="320.0" departLane="random" departSpeed="10" />
    <vehicle id="N_S_82" type="standard_car" route="N_S" depart="322.0" departLane="random" departSpeed="10" />
    <vehicle id="W_E_83" type="standard_car" route="W_E" depart="323.0" departLane="random" departSpeed="10" />
    <vehicle id="N_S_84" type="standard_car" route="N_S" depart="330.0" departLane="random" departSpeed="10" />
    <vehicle id="S_N_85" type="standard_car" route="S_N" depart="330.0" departLane="random" departSpeed="10" />
    <vehicle id="S_N_86" type="standard_car" route="S_N" depart="333.0" departLane="random" departSpeed="10" />
    <vehicle id="S_N_87" type="standard_car" route="S_N" depart="333.0" departLane="random" departSpeed="10" />
    <vehicle id="N_S_88" type="standard_car" route="N_S" depart="333.0" departLane="random" departSpeed="10" />
    <vehicle id="W_E_89" type="standard_car" route="W_E" depart="338.0" departLane="random" departSpeed="10" />
    <vehicle id="N_E_90" type="standard_car" route="N_E" depart="341.0" departLane="random" departSpeed="10" />
    <vehicle id="N_W_91" type="standard_car" route="N_W" depart="341.0" departLane="random" departSpeed="10" />
    <vehicle id="N_S_92" type="standard_car" route="N_S" depart="343.0" departLane="random" departSpeed="10" />
    <vehicle id="E_W_93" type="standard_car" route="E_W" depart="347.0" departLane="random" departSpeed="10" />
    <vehicle id="S_E_94" type="standard_car" route="S_E" depart="349.0" departLane="random" departSpeed="10" />
    <vehicle id="S_N_95" type="standard_car" route="S_N" depart="349.0" departLane="random" departSpeed="10" />
    <vehicle id="W_E_96" type="standard_car" route="W_E" depart="349.0" departLane="random" departSpeed="10" />
    <vehicle id="W_S_97" type="standard_car" route="W_S" depart="349.0" departLane="random" departSpeed="10" />
    <vehicle id="S_N_98" type="standard_car" route="S_N" depart="350.0" departLane="random" departSpeed="10" />
    <vehicle id="W_E_99" type="standard_car" route="W_E" depart="352.0" departLane="random" departSpeed="10" />
    <vehicle id="W_N_100" type="standard_car" route="W_N" depart="352.0" departLane="random" departSpeed="10" />
    <vehicle id="S_N_101" type="standard_car" route="S_N" depart="353.0" departLane="random" departSpeed="10" />
    <vehicle id="S_N_102" type="standard_car" route="S_N" depart="357.0" departLane="random" departSpeed="10" />
    <vehicle id="N_S_103" type="standard_car" route="N_S" depart="360.0" departLane="random" departSpeed="10" />
    <vehicle id="N_W_104" type="standard_car" route="N_W" depart="361.0" departLane="random" departSpeed="10" />
    <vehicle id="S_W_105" type="standard_car" route="S_W" depart="362.0" departLane="random" departSpeed="10" />
    <vehicle id="N_S_106" type="standard_car" route="N_S" depart="363.0" departLane="random" departSpeed="10" />
    <vehicle id="E_S_107" type="standard_car" route="E_S" depart="365.0" departLane="random" departSpeed="10" />
    <vehicle id="E_N_108" type="standard_car" route="E_N" depart="369.0" departLane="random" departSpeed="10" />
    <vehicle id="S_E_109" type="standard_car" route="S_E" depart="371.0" departLane="random" departSpeed="10" />
    <vehicle id="N_S_110" type="standard_car" route="N_S" depart="373.0" departLane="random" departSpeed="10" />
    <vehicle id="E_W_111" type="standard_car" route="E_W" depart="375.0" departLane="random" departSpeed="10" />
    <vehicle id="W_E_112" type="standard_car" route="W_E" depart="376.0" departLane="random" departSpeed="10" />
    <vehicle id="N_S_113" type="standard_car" route="N_S" depart="378.0" departLane="random" departSpeed="10" />
    <vehicle id="S_N_114" type="standard_car" route="S_N" depart="379.0" departLane="random" departSpeed="10" />
    <vehicle id="N_S_115" type="standard_car" route="N_S" depart="382.0" departLane="random" departSpeed="10" />
    <vehicle id="E_N_116" type="standard_car" route="E_N" depart="386.0" departLane="random" departSpeed="10" />
    <vehicle id="E_W_117" type="standard_car" route="E_W" depart="388.0" departLane="random" departSpeed="10" />
    <vehicle id="W_E_118" type="standard_car" route="W_E" depart="389.0" departLane="random" departSpeed="10" />
    <vehicle id="W_S_119" type="standard_car" route="W_S" depart="390.0" departLane="random" departSpeed="10" />
    <vehicle id="S_E_120" type="standard_car" route="S_E" depart="391.0" departLane="random" departSpeed="10" />
    <vehicle id="S_W_121" type="standard_car" route="S_W" depart="391.0" departLane="random" departSpeed="10" />
    <vehicle id="N_S_122" type="standard_car" route="N_S" depart="394.0" departLane="random" departSpeed="10" />
    <vehicle id="S_N_123" type="standard_car" route="S_N" depart="404.0" departLane="random" departSpeed="10" />
    <vehicle id="E_W_124" type="standard_car" route="E_W" depart="405.0" departLane="random" departSpeed="10" />
    <vehicle id="S_N_125" type="standard_car" route="S_N" depart="406.0" departLane="random" departSpeed="10" />
    <vehicle id="S_N_126" type="standard_car" route="S_N" depart="407.0" departLane="random" departSpeed="10" />
    <vehicle id="W_E_127" type="standard_car" route="W_E" depart="407.0" departLane="random" departSpeed="10" />
    <vehicle id="S_N_128" type="standard_car" route="S_N" depart="407.0" departLane="random" departSpeed="10" />
    <vehicle id="E_S_129" type="standard_car" route="E_S" depart="407.0" departLane="random" departSpeed="10" />
    <vehicle id="W_N_130" type="standard_car" route="W_N" depart="413.0" departLane="random" departSpeed="10" />
    <vehicle id="N_E_131" type="standard_car" route="N_E" depart="418.0" departLane="random" departSpeed="10" />
    <vehicle id="N_S_132" type="standard_car" route="N_S" depart="424.0" departLane="random" departSpeed="10" />
    <vehicle id="N_S_133" type="standard_car" route="N_S" depart="424.0" departLane="random" departSpeed="10" />
    <vehicle id="S_N_134" type="standard_car" route="S_N" depart="424.0" departLane="random" departSpeed="10" />
    <vehicle id="E_S_135" type="standard_car" route="E_S" depart="427.0" departLane="random" departSpeed="10" />
    <vehicle id="E_W_136" type="standard_car" route="E_W" depart="429.0" departLane="random" departSpeed="10" />
    <vehicle id="N_S_137" type="standard_car" route="N_S" depart="429.0" departLane="random" departSpeed="10" />
    <vehicle id="W_E_138" type="standard_car" route="W_E" depart="430.0" departLane="random" departSpeed="10" />
    <vehicle id="W_E_139" type="standard_car" route="W_E" depart="436.0" departLane="random" departSpeed="10" />
    <vehicle id="W_E_140" type="standard_car" route="W_E" depart="438.0" departLane="random" departSpeed="10" />
    <vehicle id="S_N_141" type="standard_car" route="S_N" depart="439.0" departLane="random" departSpeed="10" />
    <vehicle id="W_E_142" type="standard_car" route="W_E" depart="442.0" departLane="random" departSpeed="10" />
    <vehicle id="E_W_143" type="standard_car" route="E_W" depart="446.0" departLane="random" departSpeed="10" />
    <vehicle id="W_E_144" type="standard_car" route="W_E" depart="451.0" departLane="random" departSpeed="10" />
    <vehicle id="E_S_145" type="standard_car" route="E_S" depart="454.0" departLane="random" departSpeed="10" />
    <vehicle id="S_N_146" type="standard_car" route="S_N" depart="461.0" departLane="random" departSpeed="10" />
    <vehicle id="N_S_147" type="standard_car" route="N_S" depart="461.0" departLane="random" departSpeed="10" />
    <vehicle id="E_W_148" type="standard_car" route="E_W" depart="463.0" departLane="random" departSpeed="10" />
    <vehicle id="N_S_149" type="standard_car" route="N_S" depart="463.0" departLane="random" departSpeed="10" />
    <vehicle id="S_N_150" type="standard_car" route="S_N" depart="464.0" departLane="random" departSpeed="10" />
    <vehicle id="N_S_151" type="standard_car" route="N_S" depart="465.0" departLane="random" departSpeed="10" />
    <vehicle id="E_W_152" type="standard_car" route="E_W" depart="466.0" departLane="random" departSpeed="10" />
    <vehicle id="W_E_153" type="standard_car" route="W_E" depart="468.0" departLane="random" departSpeed="10" />
    <vehicle id="S_N_154" type="standard_car" route="S_N" depart="469.0" departLane="random" departSpeed="10" />
    <vehicle id="E_N_155" type="standard_car" route="E_N" depart="470.0" departLane="random" departSpeed="10" />
    <vehicle id="E_W_156" type="standard_car" route="E_W" depart="471.0" departLane="random" departSpeed="10" />
    <vehicle id="N_S_157" type="standard_car" route="N_S" depart="471.0" departLane="random" departSpeed="10" />
    <vehicle id="N_W_158" type="standard_car" route="N_W" depart="476.0" departLane="random" departSpeed="10" />
    <vehicle id="E_S_159" type="standard_car" route="E_S" depart="478.0" departLane="random" departSpeed="10" />
    <vehicle id="W_E_160" type="standard_car" route="W_E" depart="479.0" departLane="random" departSpeed="10" />
    <vehicle id="W_E_161" type="standard_car" route="W_E" depart="481.0" departLane="random" departSpeed="10" />
    <vehicle id="S_N_162" type="standard_car" route="S_N" depart="487.0" departLane="random" departSpeed="10" />
    <vehicle id="W_N_163" type="standard_car" route="W_N" depart="487.0" departLane="random" departSpeed="10" />
    <vehicle id="W_E_164" type="standard_car" route="W_E" depart="489.0" departLane="random" departSpeed="10" />
    <vehicle id="N_S_165" type="standard_car" route="N_S" depart="492.0" departLane="random" departSpeed="10" />
    <vehicle id="N_S_166" type="standard_car" route="N_S" depart="500.0" departLane="random" departSpeed="10" />
    <vehicle id="E_W_167" type="standard_car" route="E_W" depart="502.0" departLane="random" departSpeed="10" />
    <vehicle id="N_W_168" type="standard_car" route="N_W" depart="503.0" departLane="random" departSpeed="10" />
    <vehicle id="W_E_169" type="standard_car" route="W_E" depart="504.0" departLane="random" departSpeed="10" />
    <vehicle id="W_E_170" type="standard_car" route="W_E" depart="506.0" departLane="random" departSpeed="10" />
    <vehicle id="E_S_171" type="standard_car" route="E_S" depart="507.0" departLane="random" departSpeed="10" />
    <vehicle id="S_E_172" type="standard_car" route="S_E" depart="508.0" departLane="random" departSpeed="10" />
    <vehicle id="N_S_173" type="standard_car" route="N_S" depart="508.0" departLane="random" departSpeed="10" />
    <vehicle id="E_W_174" type="standard_car" route="E_W" depart="509.0" departLane="random" departSpeed="10" />
    <vehicle id="W_E_175" type="standard_car" route="W_E" depart="518.0" departLane="random" departSpeed="10" />
    <vehicle id="E_W_176" type="standard_car" route="E_W" depart="519.0" departLane="random" departSpeed="10" />
    <vehicle id="N_S_177" type="standard_car" route="N_S" depart="519.0" departLane="random" departSpeed="10" />
    <vehicle id="S_N_178" type="standard_car" route="S_N" depart="519.0" departLane="random" departSpeed="10" />
    <vehicle id="W_S_179" type="standard_car" route="W_S" depart="519.0" departLane="random" departSpeed="10" />
    <vehicle id="W_E_180" type="standard_car" route="W_E" depart="520.0" departLane="random" departSpeed="10" />
    <vehicle id="N_S_181" type="standard_car" route="N_S" depart="521.0" departLane="random" departSpeed="10" />
    <vehicle id="N_S_182" type="standard_car" route="N_S" depart="527.0" departLane="random" departSpeed="10" />
    <vehicle id="S_N_183" type="standard_car" route="S_N" depart="530.0" departLane="random" departSpeed="10" />
    <vehicle id="S_N_184" type="standard_car" route="S_N" depart="530.0" departLane="random" departSpeed="10" />
    <vehicle id="S_N_185" type="standard_car" route="S_N" depart="531.0" departLane="random" departSpeed="10" />
    <vehicle id="S_N_186" type="standard_car" route="S_N" depart="534.0" departLane="random" departSpeed="10" />
    <vehicle id="S_N_187" type="standard_car" route="S_N" depart="534.0" departLane="random" departSpeed="10" />
    <vehicle id="S_N_188" type="standard_car" route="S_N" depart="535.0" departLane="random" departSpeed="10" />
    <vehicle id="E_W_189" type="standard_car" route="E_W" depart="540.0" departLane="random" departSpeed="10" />
    <vehicle id="N_S_190" type="standard_car" route="N_S" depart="542.0" departLane="random" departSpeed="10" />
    <vehicle id="E_W_191" type="standard_car" route="E_W" depart="547.0" departLane="random" departSpeed="10" />
    <vehicle id="S_N_192" type="standard_car" route="S_N" depart="548.0" departLane="random" departSpeed="10" />
    <vehicle id="N_S_193" type="standard_car" route="N_S" depart="549.0" departLane="random" departSpeed="10" />
    <vehicle id="E_N_194" type="standard_car" route="E_N" depart="552.0" departLane="random" departSpeed="10" />
    <vehicle id="W_E_195" type="standard_car" route="W_E" depart="554.0" departLane="random" departSpeed="10" />
    <vehicle id="W_E_196" type="standard_car" route="W_E" depart="555.0" departLane="random" departSpeed="10" />
    <vehicle id="S_N_197" type="standard_car" route="S_N" depart="555.0" departLane="random" departSpeed="10" />
    <vehicle id="S_N_198" type="standard_car" route="S_N" depart="556.0" departLane="random" departSpeed="10" />
    <vehicle id="E_W_199" type="standard_car" route="E_W" depart="557.0" departLane="random" departSpeed="10" />
    <vehicle id="N_W_200" type="standard_car" route="N_W" depart="558.0" departLane="random" departSpeed="10" />
    <vehicle id="S_N_201" type="standard_car" route="S_N" depart="558.0" departLane="random" departSpeed="10" />
    <vehicle id="E_S_202" type="standard_car" route="E_S" depart="560.0" departLane="random" departSpeed="10" />
    <vehicle id="S_N_203" type="standard_car" route="S_N" depart="560.0" departLane="random" departSpeed="10" />
    <vehicle id="E_S_204" type="standard_car" route="E_S" depart="561.0" departLane="random" departSpeed="10" />
    <vehicle id="W_E_205" type="standard_car" route="W_E" depart="562.0" departLane="random" departSpeed="10" />
    <vehicle id="W_E_206" type="standard_car" route="W_E" depart="562.0" departLane="random" departSpeed="10" />
    <vehicle id="S_N_207" type="standard_car" route="S_N" depart="563.0" departLane="random" departSpeed="10" />
    <vehicle id="N_S_208" type="standard_car" route="N_S" depart="564.0" departLane="random" departSpeed="10" />
    <vehicle id="E_W_209" type="standard_car" route="E_W" depart="565.0" departLane="random" departSpeed="10" />
    <vehicle id="S_W_210" type="standard_car" route="S_W" depart="565.0" departLane="random" departSpeed="10" />
    <vehicle id="N_E_211" type="standard_car" route="N_E" depart="565.0" departLane="random" departSpeed="10" />
    <vehicle id="W_S_212" type="standard_car" route="W_S" depart="566.0" departLane="random" departSpeed="10" />
    <vehicle id="S_N_213" type="standard_car" route="S_N" depart="571.0" departLane="random" departSpeed="10" />
    <vehicle id="S_N_214" type="standard_car" route="S_N" depart="571.0" departLane="random" departSpeed="10" />
    <vehicle id="N_S_215" type="standard_car" route="N_S" depart="572.0" departLane="random" departSpeed="10" />
    <vehicle id="N_E_216" type="standard_car" route="N_E" depart="575.0" departLane="random" departSpeed="10" />
    <vehicle id="W_E_217" type="standard_car" route="W_E" depart="578.0" departLane="random" departSpeed="10" />
    <vehicle id="W_E_218" type="standard_car" route="W_E" depart="581.0" departLane="random" departSpeed="10" />
    <vehicle id="W_N_219" type="standard_car" route="W_N" depart="584.0" departLane="random" departSpeed="10" />
    <vehicle id="S_N_220" type="standard_car" route="S_N" depart="585.0" departLane="random" departSpeed="10" />
    <vehicle id="W_E_221" type="standard_car" route="W_E" depart="585.0" departLane="random" departSpeed="10" />
    <vehicle id="S_N_222" type="standard_car" route="S_N" depart="586.0" departLane="random" departSpeed="10" />
    <vehicle id="E_W_223" type="standard_car" route="E_W" depart="586.0" departLane="random" departSpeed="10" />
    <vehicle id="S_E_224" type="standard_car" route="S_E" depart="588.0" departLane="random" departSpeed="10" />
    <vehicle id="S_E_225" type="standard_car" route="S_E" depart="589.0" departLane="random" departSpeed="10" />
    <vehicle id="N_W_226" type="standard_car" route="N_W" depart="593.0" departLane="random" departSpeed="10" />
    <vehicle id="E_N_227" type="standard_car" route="E_N" depart="594.0" departLane="random" departSpeed="10" />
    <vehicle id="S_N_228" type="standard_car" route="S_N" depart="594.0" departLane="random" departSpeed="10" />
    <vehicle id="N_S_229" type="standard_car" route="N_S" depart="594.0" departLane="random" departSpeed="10" />
    <vehicle id="E_S_230" type="standard_car" route="E_S" depart="596.0" departLane="random" departSpeed="10" />
    <vehicle id="S_N_231" type="standard_car" route="S_N" depart="597.0" departLane="random" departSpeed="10" />
    <vehicle id="E_W_232" type="standard_car" route="E_W" depart="598.0" departLane="random" departSpeed="10" />
    <vehicle id="E_W_233" type="standard_car" route="E_W" depart="602.0" departLane="random" departSpeed="10" />
    <vehicle id="N_S_234" type="standard_car" route="N_S" depart="603.0" departLane="random" departSpeed="10" />
    <vehicle id="S_N_235" type="standard_car" route="S_N" depart="604.0" departLane="random" departSpeed="10" />
    <vehicle id="E_W_236" type="standard_car" route="E_W" depart="606.0" departLane="random" departSpeed="10" />
    <vehicle id="E_W_237" type="standard_car" route="E_W" depart="608.0" departLane="random" departSpeed="10" />
    <vehicle id="E_W_238" type="standard_car" route="E_W" depart="609.0" departLane="random" departSpeed="10" />
    <vehicle id="E_S_239" type="standard_car" route="E_S" depart="610.0" departLane="random" departSpeed="10" />
    <vehicle id="S_N_240" type="standard_car" route="S_N" depart="610.0" departLane="random" departSpeed="10" />
    <vehicle id="E_W_241" type="standard_car" route="E_W" depart="611.0" departLane="random" departSpeed="10" />
    <vehicle id="N_S_242" type="standard_car" route="N_S" depart="611.0" departLane="random" departSpeed="10" />
    <vehicle id="S_N_243" type="standard_car" route="S_N" depart="612.0" departLane="random" departSpeed="10" />
    <vehicle id="W_S_244" type="standard_car" route="W_S" depart="613.0" departLane="random" departSpeed="10" />
    <vehicle id="E_W_245" type="standard_car" route="E_W" depart="617.0" departLane="random" departSpeed="10" />
    <vehicle id="N_S_246" type="standard_car" route="N_S" depart="617.0" departLane="random" departSpeed="10" />
    <vehicle id="W_N_247" type="standard_car" route="W_N" depart="617.0" departLane="random" departSpeed="10" />
    <vehicle id="N_S_248" type="standard_car" route="N_S" depart="617.0" departLane="random" departSpeed="10" />
    <vehicle id="E_W_249" type="standard_car" route="E_W" depart="617.0" departLane="random" departSpeed="10" />
    <vehicle id="S_N_250" type="standard_car" route="S_N" depart="618.0" departLane="random" departSpeed="10" />
    <vehicle id="E_W_251" type="standard_car" route="E_W" depart="619.0" departLane="random" departSpeed="10" />
    <vehicle id="E_N_252" type="standard_car" route="E_N" depart="619.0" departLane="random" departSpeed="10" />
    <vehicle id="E_W_253" type="standard_car" route="E_W" depart="620.0" departLane="random" departSpeed="10" />
    <vehicle id="E_W_254" type="standard_car" route="E_W" depart="621.0" departLane="random" departSpeed="10" />
    <vehicle id="S_N_255" type="standard_car" route="S_N" depart="625.0" departLane="random" departSpeed="10" />
    <vehicle id="E_W_256" type="standard_car" route="E_W" depart="627.0" departLane="random" departSpeed="10" />
    <vehicle id="S_E_257" type="standard_car" route="S_E" depart="629.0" departLane="random" departSpeed="10" />
    <vehicle id="W_N_258" type="standard_car" route="W_N" depart="632.0" departLane="random" departSpeed="10" />
    <vehicle id="N_W_259" type="standard_car" route="N_W" depart="632.0" departLane="random" departSpeed="10" />