<routes>
        <vType accel="1.0" decel="4.5" id="standard_car" length="5.0" minGap="2.5" maxSpeed="25" sigma="0.5" />
        <route id="W_N" edges="W2TL TL2N"/>
        <route id="W_E" edges="W2TL TL2E"/>
        <route id="W_S" edges="W2TL TL2S"/>
        <route id="N_W" edges="N2TL TL2W"/>
        <route id="N_E" edges="N2TL TL2E"/>
        <route id="N_S" edges="N2TL TL2S"/>
        <route id="E_W" edges="E2TL TL2W"/>
        <route id="E_N" edges="E2TL TL2N"/>
        <route id="E_S" edges="E2TL TL2S"/>
        <route id="S_W" edges="S2TL TL2W"/>
        <route id="S_N" edges="S2TL TL2N"/>
        <route id="S_E" edges="S2TL TL2E"/>
    <vehicle id="S_W_0" type="standard_car" route="S_W" depart="36.0" departLane="random" departSpeed="10" />
    <vehicle id="W_E_1" type="standard_car" route="W_E" depart="54.0" departLane="random" departSpeed="10" />
    <vehicle id="S_N_2" type="standard_car" route="S_N" depart="63.0" departLane="random" departSpeed="10" />
    <vehicle id="W_E_3" type="standard_car" route="W_E" depart="72.0" departLane="random" departSpeed="10" />
    <vehicle id="W_E_4" type="standard_car" route="W_E" depart="76.0" departLane="random" departSpeed="10" />
    <vehicle id="N_S_5" type="standard_car" route="N_S" depart="81.0" departLane="random" departSpeed="10" />
    <vehicle id="S_N_6" type="standard_car" route="S_N" depart="119.0" departLane="random" departSpeed="10" />
    <vehicle id="N_S_7" type="standard_car" route="N_S" depart="122.0" departLane="random" departSpeed="10" />
    <vehicle id="W_E_8" type="standard_car" route="W_E" depart="122.0" departLane="random" departSpeed="10" />
    <vehicle id="S_N_9" type="standard_car" route="S_N" depart="127.0" departLane="random" departSpeed="10" />
    <vehicle id="S_N_10" type="standard_car" route="S_N" depart="127.0" departLane="random" departSpeed="10" />
    <vehicle id="E_W_11" type="standard_car" route="E_W" depart="133.0" departLane="random" departSpeed="10" />
    <vehicle id="E_W_12" type="standard_car" route="E_W" depart="140.0" departLane="random" departSpeed="10" />
    <vehicle id="E_W_13" type="standard_car" route="E_W" depart="141.0" departLane="random" departSpeed="10" />
    <vehicle id="S_E_14" type="standard_car" route="S_E" depart="144.0" departLane="random" departSpeed="10" />
    <vehicle id="N_S_15" type="standard_car" route="N_S" depart="149.0" departLane="random" departSpeed="10" />
    <vehicle id="E_W_16" type="standard_car" route="E_W" depart="152.0" departLane="random" departSpeed="10" />
    <vehicle id="E_W_17" type="standard_car" route="E_W" depart="161.0" departLane="random" departSpeed="10" />
    <vehicle id="W_S_18" type="standard_car" route="W_S" depart="163.0" departLane="random" departSpeed="10" />
    <vehicle id="W_N_19" type="standard_car" route="W_N" depart="167.0" departLane="random" departSpeed="10" />
    <vehicle id="W_E_20" type="standard_car" route="W_E" depart="176.0" departLane="random" departSpeed="10" />
    <vehicle id="N_W_21" type="standard_car" route="N_W" depart="177.0" departLane="random" departSpeed="10" />
    <vehicle id="E_W_22" type="standard_car" route="E_W" depart="183.0" departLane="random" departSpeed="10" />
    <vehicle id="E_W_23" type="standard_car" route="E_W" depart="184.0" departLane="random" departSpeed="10" />
    <vehicle id="E_W_24" type="standard_car" route="E_W" depart="184.0" departLane="random" departSpeed="10" />
    <vehicle id="W_E_25" type="standard_car" route="W_E" depart="185.0" departLane="random" departSpeed="10" />
    <vehicle id="S_W_26" type="standard_car" route="S_W" depart="187.0" departLane="random" departSpeed="10" />
    <vehicle id="W_E_27" type="standard_car" route="W_E" depart="190.0" departLane="random" departSpeed="10" />
    <vehicle id="W_E_28" type="standard_car" route="W_E" depart="201.0" departLane="random" departSpeed="10" />
    <vehicle id="S_N_29" type="standard_car" route="S_N" depart="207.0" departLane="random" departSpeed="10" />
    <vehicle id="E_W_30" type="standard_car" route="E_W" depart="208.0" departLane="random" departSpeed="10" />
    <vehicle id="N_S_31" type="standard_car" route="N_S" depart="221.0" departLane="random" departSpeed="10" />
    <vehicle id="E_W_32" type="standard_car" route="E_W" depart="225.0" departLane="random" departSpeed="10" />
    <vehicle id="S_N_33" type="standard_car" route="S_N" depart="245.0" departLane="random" departSpeed="10" />
    <vehicle id="W_E_34" type="standard_car" route="W_E" depart="245.0" departLane="random" departSpeed="10" />
    <vehicle id="W_N_35" type="standard_car" route="W_N" depart="248.0" departLane="random" departSpeed="10" />
    <vehicle id="W_E_36" type="standard_car" route="W_E" depart="257.0" departLane="random" departSpeed="10" />
    <vehicle id="E_W_37" type="standard_car" route="E_W" depart="267.0" departLane="random" departSpeed="10" />
    <vehicle id="W_E_38" type="standard_car" route="W_E" depart="269.0" departLane="random" departSpeed="10" />
    <vehicle id="N_S_39" type="standard_car" route="N_S" depart="269.0" departLane="random" departSpeed="10" />
    <vehicle id="N_S_40" type="standard_car" route="N_S" depart="269.0" departLane="random" departSpeed="10" />
    <vehicle id="S_N_41" type="standard_car" route="S_N" depart="271.0" departLane="random" departSpeed="10" />
    <vehicle id="N_E_42" type="standard_car" route="N_E" depart="275.0" departLane="random" departSpeed="10" />
    <vehicle id="S_N_43" type="standard_car" route="S_N" depart="275.0" departLane="random" departSpeed="10" />
    <vehicle id="S_N_44" type="standard_car" route="S_N" depart="280.0" departLane="random" departSpeed="10" />
    <vehicle id="S_N_45" type="standard_car" route="S_N" depart="282.0" departLane="random" departSpeed="10" />
    <vehicle id="W_E_46" type="standard_car" route="W_E" depart="282.0" departLane="random" departSpeed="10" />
    <vehicle id="E_W_47" type="standard_car" route="E_W" depart="287.0" departLane="random" departSpeed="10" />
    <vehicle id="N_S_48" type="standard_car" route="N_S" depart="289.0" departLane="random" departSpeed="10" />
    <vehicle id="N_W_49" type="standard_car" route="N_W" depart="293.0" departLane="random" departSpeed="10" />
    <vehicle id="E_W_50" type="standard_car" route="E_W" depart="299.0" departLane="random" departSpeed="10" />
    <vehicle id="W_E_51" type="standard_car" route="W_E" depart="300.0" departLane="random" departSpeed="10" />
    <vehicle id="E_N_52" type="standard_car" route="E_N" depart="300.0" departLane="random" departSpeed="10" />
    <vehicle id="W_E_53" type="standard_car" route="W_E" depart="304.0" departLane="random" departSpeed="10" />
    <vehicle id="E_W_54" type="standard_car" route="E_W" depart="306.0" departLane="random" departSpeed="10" />
    <vehicle id="E_W_55" type="standard_car" route="E_W" depart="308.0" departLane="random" departSpeed="10" />
    <vehicle id="W_E_56" type="standard_car" route="W_E" depart="310.0" departLane="random" departSpeed="10" />
    <vehicle id="E_W_57" type="standard_car" route="E_W" depart="311.0" departLane="random" departSpeed="10" />
    <vehicle id="E_N_58" type="standard_car" route="E_N" depart="317.0" departLane="random" departSpeed="10" />
    <vehicle id="W_E_59" type="standard_car" route="W_E" depart="318.0" departLane="random" departSpeed="10" />
    <vehicle id="W_E_60" type="standard_car" route="W_E" depart="318.0" departLane="random" departSpeed="10" />
    <vehicle id="E_N_61" type="standard_car" route="E_N" depart="319.0" departLane="random" departSpeed="10" />
    <vehicle id="W_E_62" type="standard_car" route="W_E" depart="321.0" departLane="random" departSpeed="10" />
    <vehicle id="S_N_63" type="standard_car" route="S_N" depart="322.0" departLane="random" departSpeed="10" />
    <vehicle id="W_E_64" type="standard_car" route="W_E" depart="323.0" departLane="random" departSpeed="10" />
    <vehicle id="N_S_65" type="standard_car" route="N_S" depart="323.0" departLane="random" departSpeed="10" />
    <vehicle id="S_N_66" type="standard_car" route="S_N" depart="323.0" departLane="random" departSpeed="10" />
    <vehicle id="E_W_67" type="standard_car" route="E_W" depart="323.0" departLane="random" departSpeed="10" />
    <vehicle id="S_N_68" type="standard_car" route="S_N" depart="323.0" departLane="random" departSpeed="10" />
    <vehicle id="S_E_69" type="standard_car" route="S_E" depart="326.0" departLane="random" departSpeed="10" />
    <vehicle id="S_N_70" type="standard_car" route="S_N" depart="327.0" departLane="random" departSpeed="10" />
    <vehicle id="N_W_71" type="standard_car" route="N_W" depart="327.0" departLane="random" departSpeed="10" />
    <vehicle id="S_N_72" type="standard_car" route="S_N" depart="327.0" departLane="random" departSpeed="10" />
    <vehicle id="N_S_73" type="standard_car" route="N_S" depart="328.0" departLane="random" departSpeed="10" />
    <vehicle id="E_W_74" type="standard_car" route="E_W" depart="331.0" departLane="random" departSpeed="10" />
    <vehicle id="S_N_75" type="standard_car" route="S_N" depart="336.0" departLane="random" departSpeed="10" />
    <vehicle id="W_E_76" type="standard_car" route="W_E" depart="337.0" departLane="random" departSpeed="10" />
    <vehicle id="N_S_77" type="standard_car" route="N_S" depart="338.0" departLane="random" departSpeed="10" />
    <vehicle id="E_N_78" type="standard_car" route="E_N" depart="341.0" departLane="random" departSpeed="10" />
    <vehicle id="W_N_79" type="standard_car" route="W_N" depart="343.0" departLane="random" departSpeed="10" />
    <vehicle id="W_E_80" type="standard_car" route="W_E" depart="349.0" departLane="random" departSpeed="10" />
    <vehicle id="S_N_81" type="standard_car" route="S_N" depart="350.0" departLane="random" departSpeed="10" />
    <vehicle id="W_E_82" type="standard_car" route="W_E" depart="354.0" departLane="random" departSpeed="10" />
    <vehicle id="N_S_83" type="standard_car" route="N_S" depart="356.0" departLane="random" departSpeed="10" />
    <vehicle id="W_E_84" type="standard_car" route="W_E" depart="357.0" departLane="random" departSpeed="10" />
    <vehicle id="E_W_85" type="standard_car" route="E_W" depart="358.0" departLane="random" departSpeed="10" />
    <vehicle id="N_S_86" type="standard_car" route="N_S" depart="363.0" departLane="random" departSpeed="10" />
    <vehicle id="W_E_87" type="standard_car" route="W_E" depart="365.0" departLane="random" departSpeed="10" />
    <vehicle id="S_E_88" type="standard_car" route="S_E" depart="367.0" departLane="random" departSpeed="10" />
    <vehicle id="S_N_89" type="standard_car" route="S_N" depart="368.0" departLane="random" departSpeed="10" />
    <vehicle id="S_W_90" type="standard_car" route="S_W" depart="368.0" departLane="random" departSpeed="10" />
    <vehicle id="W_E_91" type="standard_car" route="W_E" depart="369.0" departLane="random" departSpeed="10" />
    <vehicle id="E_W_92" type="standard_car" route="E_W" depart="372.0" departLane="random" departSpeed="10" />
    <vehicle id="S_N_93" type="standard_car" route="S_N" depart="380.0" departLane="random" departSpeed="10" />
    <vehicle id="W_E_94" type="standard_car" route="W_E" depart="383.0" departLane="random" departSpeed="10" />
    <vehicle id="S_N_95" type="standard_car" route="S_N" depart="384.0" departLane="random" departSpeed="10" />
    <vehicle id="W_E_96" type="standard_car" route="W_E" depart="389.0" departLane="random" departSpeed="10" />
    <vehicle id="E_N_97" type="standard_car" route="E_N" depart="394.0" departLane="random" departSpeed="10" />
    <vehicle id="W_E_98" type="standard_car" route="W_E" depart="396.0" departLane="random" departSpeed="10" />
    <vehicle id="S_N_99" type="standard_car" route="S_N" depart="399.0" departLane="random" departSpeed="10" />
    <vehicle id="E_W_100" type="standard_car" route="E_W" depart="400.0" departLane="random" departSpeed="10" />
    <vehicle id="W_S_101" type="standard_car" route="W_S" depart="406.0" departLane="random" departSpeed="10" />
    <vehicle id="W_E_102" type="standard_car" route="W_E" depart="408.0" departLane="random" departSpeed="10" />
    <vehicle id="S_N_103" type="standard_car" route="S_N" depart="410.0" departLane="random" departSpeed="10" />
    <vehicle id="W_N_104" type="standard_car" route="W_N" depart="411.0" departLane="random" departSpeed="10" />
    <vehicle id="E_W_105" type="standard_car" route="E_W" depart="412.0" departLane="random" departSpeed="10" />
    <vehicle id="E_N_106" type="standard_car" route="E_N" depart="420.0" departLane="random" departSpeed="10" />
    <vehicle id="E_W_107" type="standard_car" route="E_W" depart="425.0" departLane="random" departSpeed="10" />
    <vehicle id="S_N_108" type="standard_car" route="S_N" depart="427.0" departLane="random" departSpeed="10" />
    <vehicle id="N_S_109" type="standard_car" route="N_S" depart="428.0" departLane="random" departSpeed="10" />
    <vehicle id="S_N_110" type="standard_car" route="S_N" depart="428.0" departLane="random" departSpeed="10" />
    <vehicle id="W_E_111" type="standard_car" route="W_E" depart="429.0" departLane="random" departSpeed="10" />
    <vehicle id="N_S_112" type="standard_car" route="N_S" depart="430.0" departLane="random" departSpeed="10" />
    <vehicle id="W_E_113" type="standard_car" route="W_E" depart="431.0" departLane="random" departSpeed="10" />
    <vehicle id="E_W_114" type="standard_car" route="E_W" depart="432.0" departLane="random" departSpeed="10" />
    <vehicle id="N_S_115" type="standard_car" route="N_S" depart="438.0" departLane="random" departSpeed="10" />
    <vehicle id="S_N_116" type="standard_car" route="S_N" depart="438.0" departLane="random" departSpeed="10" />
    <vehicle id="S_N_117" type="standard_car" route="S_N" depart="441.0" departLane="random" departSpeed="10" />
    <vehicle id="S_W_118" type="standard_car" route="S_W" depart="442.0" departLane="random" departSpeed="10" />
    <vehicle id="W_E_119" type="standard_car" route="W_E" depart="446.0" departLane="random" departSpeed="10" />
    <vehicle id="W_E_120" type="standard_car" route="W_E" depart="447.0" departLane="random" departSpeed="10" />
    <vehicle id="S_E_121" type="standard_car" route="S_E" depart="449.0" departLane="random" departSpeed="10" />
    <vehicle id="E_S_122" type="standard_car" route="E_S" depart="455.0" departLane="random" departSpeed="10" />
    <vehicle id="N_W_123" type="standard_car" route="N_W" depart="462.0" departLane="random" departSpeed="10" />
    <vehicle id="W_E_124" type="standard_car" route="W_E" depart="467.0" departLane="random" departSpeed="10" />
    <vehicle id="N_S_125" type="standard_car" route="N_S" depart="467.0" departLane="random" departSpeed="10" />
    <vehicle id="S_N_126" type="standard_car" route="S_N" depart="468.0" departLane="random" departSpeed="10" />
    <vehicle id="N_W_127" type="standard_car" route="N_W" depart="469.0" departLane="random" departSpeed="10" />
    <vehicle id="W_E_128" type="standard_car" route="W_E" depart="474.0" departLane="random" departSpeed="10" />
    <vehicle id="E_W_129" type="standard_car" route="E_W" depart="481.0" departLane="random" departSpeed="10" />
    <vehicle id="S_N_130" type="standard_car" route="S_N" depart="481.0" departLane="random" departSpeed="10" />
    <vehicle id="E_W_131" type="standard_car" route="E_W" depart="483.0" departLane="random" departSpeed="10" />
    <vehicle id="E_W_132" type="standard_car" route="E_W" depart="486.0" departLane="random" departSpeed="10" />
    <vehicle id="W_N_133" type="standard_car" route="W_N" depart="487.0" departLane="random" departSpeed="10" />
    <vehicle id="S_N_134" type="standard_car" route="S_N" depart="488.0" departLane="random" departSpeed="10" />
    <vehicle id="W_E_135" type="standard_car" route="W_E" depart="489.0" departLane="random" departSpeed="10" />
    <vehicle id="E_W_136" type="standard_car" route="E_W" depart="490.0" departLane="random" departSpeed="10" />
    <vehicle id="S_W_137" type="standard_car" route="S_W" depart="491.0" departLane="random" departSpeed="10" />
    <vehicle id="W_E_138" type="standard_car" route="W_E" depart="498.0" departLane="random" departSpeed="10" />
    <vehicle id="N_E_139" type="standard_car" route="N_E" depart="501.0" departLane="random" departSpeed="10" />
    <vehicle id="N_S_140" type="standard_car" route="N_S" depart="504.0" departLane="random" departSpeed="10" />
    <vehicle id="E_W_141" type="standard_car" route="E_W" depart="504.0" departLane="random" departSpeed="10" />
    <vehicle id="S_N_142" type="standard_car" route="S_N" depart="507.0" departLane="random" departSpeed="10" />
    <vehicle id="E_N_143" type="standard_car" route="E_N" depart="507.0" departLane="random" departSpeed="10" />
    <vehicle id="S_N_144" type="standard_car" route="S_N" depart="508.0" departLane="random" departSpeed="10" />
    <vehicle id="E_S_145" type="standard_car" route="E_S" depart="508.0" departLane="random" departSpeed="10" />
    <vehicle id="E_W_146" type="standard_car" route="E_W" depart="510.0" departLane="random" departSpeed="10" />
    <vehicle id="N_S_147" type="standard_car" route="N_S" depart="510.0" departLane="random" departSpeed="10" />
    <vehicle id="W_E_148" type="standard_car" route="W_E" depart="510.0" departLane="random" departSpeed="10" />
    <vehicle id="E_W_149" type="standard_car" route="E_W" depart="511.0" departLane="random" departSpeed="10" />
    <vehicle id="N_S_150" type="standard_car" route="N_S" depart="512.0" departLane="random" departSpeed="10" />
    <vehicle id="W_E_151" type="standard_car" route="W_E" depart="515.0" departLane="random" departSpeed="10" />
    <vehicle id="W_S_152" type="standard_car" route="W_S" depart="516.0" departLane="random" departSpeed="10" />
    <vehicle id="N_S_153" type="standard_car" route="N_S" depart="517.0" departLane="random" departSpeed="10" />
    <vehicle id="E_S_154" type="standard_car" route="E_S" depart="519.0" departLane="random" departSpeed="10" />
    <vehicle id="W_S_155" type="standard_car" route="W_S" depart="519.0" departLane="random" departSpeed="10" />
    <vehicle id="E_W_156" type="standard_car" route="E_W" depart="524.0" departLane="random" departSpeed="10" />
    <vehicle id="S_N_157" type="standard_car" route="S_N" depart="526.0" departLane="random" departSpeed="10" />
    <vehicle id="W_E_158" type="standard_car" route="W_E" depart="530.0" departLane="random" departSpeed="10" />
    <vehicle id="N_E_159" type="standard_car" route="N_E" depart="530.0" departLane="random" departSpeed="10" />
    <vehicle id="S_N_160" type="standard_car" route="S_N" depart="532.0" departLane="random" departSpeed="10" />
    <vehicle id="N_S_161" type="standard_car" route="N_S" depart="533.0" departLane="random" departSpeed="10" />
    <vehicle id="W_E_162" type="standard_car" route="W_E" depart="534.0" departLane="random" departSpeed="10" />
    <vehicle id="S_N_163" type="standard_car" route="S_N" depart="535.0" departLane="random" departSpeed="10" />
    <vehicle id="S_E_164" type="standard_car" route="S_E" depart="540.0" departLane="random" departSpeed="10" />
    <vehicle id="E_W_165" type="standard_car" route="E_W" depart="541.0" departLane="random" departSpeed="10" />
    <vehicle id="E_W_166" type="standard_car" route="E_W" depart="544.0" departLane="random" departSpeed="10" />
    <vehicle id="S_E_167" type="standard_car" route="S_E" depart="545.0" departLane="random" departSpeed="10" />
    <vehicle id="E_W_168" type="standard_car" route="E_W" depart="548.0" departLane="random" departSpeed="10" />
    <vehicle id="W_E_169" type="standard_car" route="W_E" depart="548.0" departLane="random" departSpeed="10" />
    <vehicle id="E_S_170" type="standard_car" route="E_S" depart="549.0" departLane="random" departSpeed="10" />
    <vehicle id="E_N_171" type="standard_car" route="E_N" depart="549.0" departLane="random" departSpeed="10" />
    <vehicle id="S_E_172" type="standard_car" route="S_E" depart="550.0" departLane="random" departSpeed="10" />
    <vehicle id="S_N_173" type="standard_car" route="S_N" depart="555.0" departLane="random" departSpeed="10" />
    <vehicle id="E_W_174" type="standard_car" route="E_W" depart="556.0" departLane="random" departSpeed="10" />
    <vehicle id="N_S_175" type="standard_car" route="N_S" depart="556.0" departLane="random" departSpeed="10" />
    <vehicle id="N_W_176" type="standard_car" route="N_W" depart="559.0" departLane="random" departSpeed="10" />
    <vehicle id="N_S_177" type="standard_car" route="N_S" depart="560.0" departLane="random" departSpeed="10" />
    <vehicle id="N_E_178" type="standard_car" route="N_E" depart="561.0" departLane="random" departSpeed="10" />
    <vehicle id="N_S_179" type="standard_car" route="N_S" depart="561.0" departLane="random" departSpeed="10" />
    <vehicle id="E_W_180" type="standard_car" route="E_W" depart="561.0" departLane="random" departSpeed="10" />
    <vehicle id="S_N_181" type="standard_car" route="S_N" depart="561.0" departLane="random" departSpeed="10" />
    <vehicle id="S_W_182" type="standard_car" route="S_W" depart="563.0" departLane="random" departSpeed="10" />
    <vehicle id="N_S_183" type="standard_car" route="N_S" depart="565.0" departLane="random" departSpeed="10" />
    <vehicle id="W_N_184" type="standard_car" route="W_N" depart="567.0" departLane="random" departSpeed="10" />
    <vehicle id="E_W_185" type="standard_car" route="E_W" depart="568.0" departLane="random" departSpeed="10" />
    <vehicle id="W_E_186" type="standard_car" route="W_E" depart="568.0" departLane="random" departSpeed="10" />
    <vehicle id="S_N_187" type="standard_car" route="S_N" depart="569.0" departLane="random" departSpeed="10" />
    <vehicle id="W_E_188" type="standard_car" route="W_E" depart="572.0" departLane="random" departSpeed="10" />
    <vehicle id="E_W_189" type="standard_car" route="E_W" depart="574.0" departLane="random" departSpeed="10" />
    <vehicle id="N_W_190" type="standard_car" route="N_W" depart="576.0" departLane="random" departSpeed="10" />
    <vehicle id="E_S_191" type="standard_car" route="E_S" depart="576.0" departLane="random" departSpeed="10" />
    <vehicle id="W_E_192" type="standard_car" route="W_E" depart="577.0" departLane="random" departSpeed="10" />
    <vehicle id="N_S_193" type="standard_car" route="N_S" depart="577.0" departLane="random" departSpeed="10" />
    <vehicle id="S_W_194" type="standard_car" route="S_W" depart="579.0" departLane="random" departSpeed="10" />
    <vehicle id="E_W_195" type="standard_car" route="E_W" depart="580.0" departLane="random" departSpeed="10" />
    <vehicle id="W_E_196" type="standard_car" route="W_E" depart="582.0" departLane="random" departSpeed="10" />
    <vehicle id="W_E_197" type="standard_car" route="W_E" depart="583.0" departLane="random" departSpeed="10" />
    <vehicle id="E_W_198" type="standard_car" route="E_W" depart="584.0" departLane="random" departSpeed="10" />
    <vehicle id="N_S_199" type="standard_car" route="N_S" depart="584.0" departLane="random" departSpeed="10" />
    <vehicle id="E_W_200" type="standard_car" route="E_W" depart="586.0" departLane="random" departSpeed="10" />
    <vehicle id="W_S_201" type="standard_car" route="W_S" depart="589.0" departLane="random" departSpeed="10" />
    <vehicle id="W_E_202" type="standard_car" route="W_E" depart="598.0" departLane="random" departSpeed="10" />
    <vehicle id="W_E_203" type="standard_car" route="W_E" depart="599.0" departLane="random" departSpeed="10" />
    <vehicle id="W_E_204" type="standard_car" route="W_E" depart="602.0" departLane="random" departSpeed="10" />
    <vehicle id="W_E_205" type="standard_car" route="W_E" depart="603.0" departLane="random" departSpeed="10" />
    <vehicle id="S_N_206" type="standard_car" route="S_N" depart="605.0" departLane="random" departSpeed="10" />
    <vehicle id="N_S_207" type="standard_car" route="N_S" depart="605.0" departLane="random" departSpeed="10" />
    <vehicle id="W_E_208" type="standard_car" route="W_E" depart="608.0" departLane="random" departSpeed="10" />
    <vehicle id="S_N_209" type="standard_car" route="S_N" depart="608.0" departLane="random" departSpeed="10" />
    <vehicle id="N_W_210" type="standard_car" route="N_W" depart="609.0" departLane="random" departSpeed="10" />
    <vehicle id="N_S_211" type="standard_car" route="N_S" depart="610.0" departLane="random" departSpeed="10" />
    <vehicle id="W_E_212" type="standard_car" route="W_E" depart="610.0" departLane="random" departSpeed="10" />
    <vehicle id="W_E_213" type="standard_car" route="W_E" depart="610.0" departLane="random" departSpeed="10" />
    <vehicle id="S_N_214" type="standard_car" route="S_N" depart="611.0" departLane="random" departSpeed="10" />
    <vehicle id="N_S_215" type="standard_car" route="N_S" depart="617.0" departLane="random" departSpeed="10" />
    <vehicle id="E_W_216" type="standard_car" route="E_W" depart="620.0" departLane="random" departSpeed="10" />
    <vehicle id="N_S_217" type="standard_car" route="N_S" depart="623.0" departLane="random" departSpeed="10" />
    <vehicle id="E_W_218" type="standard_car" route="E_W" depart="623.0" departLane="random" departSpeed="10" />
    <vehicle id="N_S_219" type="standard_car" route="N_S" depart="624.0" departLane="random" departSpeed="10" />
    <vehicle id="S_N_220" type="standard_car" route="S_N" depart="624.0" departLane="random" departSpeed="10" />
    <vehicle id="E_W_221" type="standard_car" route="E_W" depart="626.0" departLane="random" departSpeed="10" />
    <vehicle id="S_N_222" type="standard_car" route="S_N" depart="626.0" departLane="random" departSpeed="10" />
    <vehicle id="N_S_223" type="standard_car" route="N_S" depart="627.0" departLane="random" departSpeed="10" />
    <vehicle id="E_S_224" type="standard_car" route="E_S" depart="628.0" departLane="random" departSpeed="10" />
    <vehicle id="E_W_225" type="standard_car" route="E_W" depart="630.0" departLane="random" departSpeed="10" />
    <vehicle id="N_S_226" type="standard_car" route="N_S" depart="633.0" departLane="random" departSpeed="10" />
    <vehicle id="W_N_227" type="standard_car" route="W_N" depart="634.0" departLane="random" departSpeed="10" />
    <vehicle id="W_S_228" type="standard_car" route="W_S" depart="636.0" departLane="random" departSpeed="10" />
    <vehicle id="N_E_229" type="standard_car" route="N_E" depart="637.0" departLane="random" departSpeed="10" />
    <vehicle id="W_E_230" type="standard_car" route="W_E" depart="637.0" departLane="random" departSpeed="10" />
    <vehicle id="S_N_231" type="standard_car" route="S_N" depart="640.0" departLane="random" departSpeed="10" />
    <vehicle id="E_W_232" type="standard_car" route="E_W" depart="642.0" departLane="random" departSpeed="10" />
    <vehicle id="W_E_233" type="standard_car" route="W_E" depart="643.0" departLane="random" departSpeed="10" />
    <vehicle id="W_E_234" type="standard_car" route="W_E" depart="644.0" departLane="random" departSpeed="10" />
    <vehicle id="N_S_235" type="standard_car" route="N_S" depart="648.0" departLane="random" departSpeed="10" />
    <vehicle id="E_N_236" type="standard_car" route="E_N" depart="651.0" departLane="random" departSpeed="10" />
    <vehicle id="W_E_237" type="standard_car" route="W_E" depart="653.0" departLane="random" departSpeed="10" />
    <vehicle id="N_S_238" type="standard_car" route="N_S" depart="655.0" departLane="random" departSpeed="10" />
    <vehicle id="W_E_239" type="standard_car" route="W_E" depart="657.0" departLane="random" departSpeed="10" />
    <vehicle id="W_N_240" type="standard_car" route="W_N" depart="658.0" departLane="random" departSpeed="10" />
    <vehicle id="W_S_241" type="standard_car" route="W_S" depart="658.0" departLane="random" departSpeed="10" />
    <vehicle id="S_N_242" type="standard_car" route="S_N" depart="659.0" departLane="random" departSpeed="10" />
    <vehicle id="W_S_243" type="standard_car" route="W_S" depart="660.0" departLane="random" departSpeed="10" />
    <vehicle id="S_N_244" type="standard_car" route="S_N" depart="662.0" departLane="random" departSpeed="10" />
    <vehicle id="S_E_245" type="standard_car" route="S_E" depart="665.0" departLane="random" departSpeed="10" />
    <vehicle id="S_N_246" type="standard_car" route="S_N" depart="666.0" departLane="random" departSpeed="10" />
    <vehicle id="S_N_247" type="standard_car" route="S_N" depart="667.0" departLane="random" departSpeed="10" />
    <vehicle id="E_W_248" type="standard_car" route="E_W" depart="667.0" departLane="random" departSpeed="10" />
    <vehicle id="N_S_249" type="standard_car" route="N_S" depart="670.0" departLane="random" departSpeed="10" />
    <vehicle id="W_E_250" type="standard_car" route="W_E" depart="672.0" departLane="random" departSpeed="10" />
    <vehicle id="W_S_251" type="standard_car" route="W_S" depart="674.0" departLane="random" departSpeed="10" />
    <vehicle id="W_S_252" type="standard_car" route="W_S" depart="677.0" departLane="random" departSpeed="10" />
    <vehicle id="W_E_253" type="standard_car" route="W_E" depart="681.0" departLane="random" departSpeed="10" />
    <vehicle id="S_N_254" type="standard_car" route="S_N" depart="682.0" departLane="random" departSpeed="10" />
    <vehicle id="W_E_255" type="standard_car" route="W_E" depart="682.0" departLane="random" departSpeed="10" />
    <vehicle id="N_S_256" type="standard_car" route="N_S" depart="682.0" departLane="random" departSpeed="10" />
    <vehicle id="W_E_257" type="standard_car" route="W_E" depart="683.0" departLane="random" departSpeed="10" />
    <vehicle id="E_W_258" type="standard_car" route="E_W" depart="684.0" departLane="random" departSpeed="10" />
    <vehicle id="W_E_259" type="standard_car" route="W_E" depart="685.0" departLane="random" departSpeed="10" />